catalyst344
     RDKit          3D

  0  0  0  0  0  0  0  0  0  0999 V3000
M  V30 BEGIN CTAB
M  V30 COUNTS 73 75 0 0 0
M  V30 BEGIN ATOM
M  V30 1 C 2.709319 3.560447 -1.899520 0
M  V30 2 C 3.260288 2.234977 -2.409301 0
M  V30 3 C 2.194580 1.192432 -2.830165 0 CFG=2
M  V30 4 C 1.407921 1.709676 -4.044409 0
M  V30 5 C 1.253354 0.771001 -1.661020 0 CFG=1
M  V30 6 C 0.212113 -0.296027 -2.040099 0
M  V30 7 P -1.074800 -0.679993 -0.798398 0 CHG=1
M  V30 8 C -0.335407 -1.962461 0.239982 0
M  V30 9 C -1.209979 -2.678695 1.242263 0
M  V30 10 C -1.116247 -2.399660 2.612173 0
M  V30 11 C -1.932005 -3.062426 3.531810 0
M  V30 12 C -2.845699 -4.017746 3.093769 0
M  V30 13 C -2.938222 -4.315866 1.736927 0
M  V30 14 C -2.121497 -3.654369 0.818118 0
M  V30 15 C -2.482069 -1.370281 -1.636996 0
M  V30 16 C -3.765341 -1.240744 -1.088396 0
M  V30 17 C -4.876778 -1.792403 -1.727186 0
M  V30 18 C -4.718614 -2.488416 -2.922302 0
M  V30 19 C -3.448509 -2.637577 -3.473369 0
M  V30 20 C -2.337420 -2.085646 -2.832247 0
M  V30 21 C -1.474869 0.817412 0.055326 0
M  V30 22 C -1.030869 1.082413 1.354037 0
M  V30 23 C -1.325041 2.295730 1.979820 0
M  V30 24 C -2.068771 3.264050 1.311380 0
M  V30 25 C -2.514528 3.020096 0.015823 0
M  V30 26 C -2.215515 1.807689 -0.607254 0
M  V30 27 N 1.968582 0.436868 -0.420689 0
M  V30 28 C 2.882948 -0.533509 -0.132749 0
M  V30 29 S 3.476873 -1.691916 -1.179314 0
M  V30 30 N 3.296030 -0.614123 1.170607 0
M  V30 31 C 3.233499 0.302384 2.239358 0
M  V30 32 C 3.074202 1.681023 2.078075 0
M  V30 33 C 3.022698 2.524002 3.192059 0
M  V30 34 C 3.150452 1.997372 4.474979 0
M  V30 35 C 3.346437 0.629332 4.644409 0
M  V30 36 C 3.398489 -0.212282 3.530519 0
M  V30 37 Br 0.000000 0.000000 0.000000 0 CHG=-1
M  V30 38 H 2.109812 3.429242 -0.994556 0
M  V30 39 H 2.094415 4.058138 -2.654682 0
M  V30 40 H 3.536141 4.233924 -1.650592 0
M  V30 41 H 3.911290 2.440281 -3.268822 0
M  V30 42 H 3.914520 1.809208 -1.640061 0
M  V30 43 H 2.744209 0.311731 -3.179868 0
M  V30 44 H 0.864222 0.897380 -4.536726 0
M  V30 45 H 2.081450 2.137892 -4.794716 0
M  V30 46 H 0.682926 2.478462 -3.758532 0
M  V30 47 H 0.684646 1.669087 -1.393703 0
M  V30 48 H -0.347335 0.066351 -2.908494 0
M  V30 49 H 0.692478 -1.230409 -2.343642 0
M  V30 50 H 0.515060 -1.534393 0.775278 0
M  V30 51 H 0.094595 -2.723156 -0.423964 0
M  V30 52 H -0.399983 -1.670975 2.981767 0
M  V30 53 H -1.851992 -2.833809 4.591125 0
M  V30 54 H -3.481505 -4.532560 3.808597 0
M  V30 55 H -3.646309 -5.063436 1.389611 0
M  V30 56 H -2.206650 -3.907700 -0.236473 0
M  V30 57 H -3.903716 -0.718290 -0.143870 0
M  V30 58 H -5.863640 -1.682944 -1.285592 0
M  V30 59 H -5.582937 -2.919973 -3.419500 0
M  V30 60 H -3.320718 -3.188486 -4.401537 0
M  V30 61 H -1.355228 -2.229458 -3.274019 0
M  V30 62 H -0.437279 0.354937 1.895526 0
M  V30 63 H -0.971568 2.482936 2.990701 0
M  V30 64 H -2.300976 4.206727 1.799288 0
M  V30 65 H -3.095231 3.772199 -0.511661 0
M  V30 66 H -2.565651 1.634154 -1.623067 0
M  V30 67 H 1.527936 0.830263 0.399421 0
M  V30 68 H 3.754328 -1.496482 1.375923 0
M  V30 69 H 3.040027 2.137694 1.093569 0
M  V30 70 H 2.901492 3.595661 3.053898 0
M  V30 71 H 3.115499 2.654700 5.340061 0
M  V30 72 H 3.461984 0.216017 5.643203 0
M  V30 73 H 3.548080 -1.277676 3.688093 0
M  V30 END ATOM
M  V30 BEGIN BOND
M  V30 1 1 1 2
M  V30 2 1 2 3
M  V30 3 1 3 4
M  V30 4 1 3 5
M  V30 5 1 5 6
M  V30 6 1 6 7
M  V30 7 1 7 8
M  V30 8 1 8 9
M  V30 9 2 9 10
M  V30 10 1 10 11
M  V30 11 2 11 12
M  V30 12 1 12 13
M  V30 13 2 13 14
M  V30 14 1 7 15
M  V30 15 2 15 16
M  V30 16 1 16 17
M  V30 17 2 17 18
M  V30 18 1 18 19
M  V30 19 2 19 20
M  V30 20 1 7 21
M  V30 21 2 21 22
M  V30 22 1 22 23
M  V30 23 2 23 24
M  V30 24 1 24 25
M  V30 25 2 25 26
M  V30 26 1 5 27
M  V30 27 1 27 28
M  V30 28 2 28 29
M  V30 29 1 28 30
M  V30 30 1 30 31
M  V30 31 2 31 32
M  V30 32 1 32 33
M  V30 33 2 33 34
M  V30 34 1 34 35
M  V30 35 2 35 36
M  V30 36 1 14 9
M  V30 37 1 20 15
M  V30 38 1 26 21
M  V30 39 1 36 31
M  V30 40 1 1 38
M  V30 41 1 1 39
M  V30 42 1 1 40
M  V30 43 1 2 41
M  V30 44 1 2 42
M  V30 45 1 3 43 CFG=3
M  V30 46 1 4 44
M  V30 47 1 4 45
M  V30 48 1 4 46
M  V30 49 1 5 47 CFG=1
M  V30 50 1 6 48
M  V30 51 1 6 49
M  V30 52 1 8 50
M  V30 53 1 8 51
M  V30 54 1 10 52
M  V30 55 1 11 53
M  V30 56 1 12 54
M  V30 57 1 13 55
M  V30 58 1 14 56
M  V30 59 1 16 57
M  V30 60 1 17 58
M  V30 61 1 18 59
M  V30 62 1 19 60
M  V30 63 1 20 61
M  V30 64 1 22 62
M  V30 65 1 23 63
M  V30 66 1 24 64
M  V30 67 1 25 65
M  V30 68 1 26 66
M  V30 69 1 27 67
M  V30 70 1 30 68
M  V30 71 1 32 69
M  V30 72 1 33 70
M  V30 73 1 34 71
M  V30 74 1 35 72
M  V30 75 1 36 73
M  V30 END BOND
M  V30 END CTAB
M  END
>  <catalyst_id>  (1) 
SXIYCGLHJUHZJQ_IOBGFZGOSA_NONE

>  <source_smiles>  (1) 
CC[C@H](C)[C@@H](C[P+](Cc1ccccc1)(c1ccccc1)c1ccccc1)NC(=S)Nc1ccccc1.[Br-]

>  <axial_configuration>  (1) 
none

>  <inchikey>  (1) 
SXIYCGLHJUHZJQ-IOBGFZGOSA-N

>  <build_source>  (1) 
smiles

>  <rdkit_version>  (1) 
2025.09.6

>  <random_seed>  (1) 
42

>  <generated_at>  (1) 
2026-05-19T12:37:01

$$$$
