catalyst85
     RDKit          3D

  0  0  0  0  0  0  0  0  0  0999 V3000
M  V30 BEGIN CTAB
M  V30 COUNTS 55 60 0 0 0
M  V30 BEGIN ATOM
M  V30 1 O 4.691135 1.459430 -2.405536 0
M  V30 2 S 3.409222 1.935232 -1.933210 0
M  V30 3 O 3.052349 3.327643 -2.083222 0
M  V30 4 N 2.230852 0.994625 -2.708032 0
M  V30 5 C 0.915170 0.953591 -2.155976 0
M  V30 6 C 0.168527 2.132106 -2.141667 0
M  V30 7 C -1.085891 2.196276 -1.526477 0
M  V30 8 C -1.825540 3.390019 -1.573899 0
M  V30 9 C -3.085109 3.478669 -0.986232 0
M  V30 10 C -3.623135 2.371165 -0.348311 0
M  V30 11 C -2.893719 1.181599 -0.288519 0
M  V30 12 C -1.600512 1.062880 -0.856013 0
M  V30 13 C -0.807842 -0.126990 -0.803697 0
M  V30 14 C 0.415704 -0.201406 -1.537553 0
M  V30 15 C 1.093852 -1.555686 -1.655632 0
M  V30 16 N 0.360914 -2.516865 -2.491308 0
M  V30 17 C -1.078323 -2.625885 -2.204053 0
M  V30 18 C -1.412680 -2.553854 -0.729797 0
M  V30 19 C -1.814293 -3.705719 -0.049022 0
M  V30 20 C -2.017363 -3.670650 1.327142 0
M  V30 21 C -1.783798 -2.501360 2.061382 0
M  V30 22 C -1.937290 -2.515770 3.457993 0
M  V30 23 C -1.668581 -1.383475 4.223813 0
M  V30 24 C -1.238262 -0.221063 3.602253 0
M  V30 25 C -1.090258 -0.189968 2.213786 0
M  V30 26 C -1.372214 -1.316520 1.399386 0
M  V30 27 C -1.237551 -1.331859 -0.027009 0
M  V30 28 C 3.264465 1.478302 -0.246099 0
M  V30 29 C 2.732951 2.350148 0.696768 0
M  V30 30 F 2.296497 3.570164 0.363402 0
M  V30 31 C 2.621199 1.950288 2.026148 0
M  V30 32 F 2.095098 2.786815 2.931271 0
M  V30 33 C 3.044495 0.687883 2.417275 0
M  V30 34 F 2.932915 0.308214 3.697170 0
M  V30 35 C 3.578583 -0.179858 1.476494 0
M  V30 36 F 3.977045 -1.405085 1.843363 0
M  V30 37 C 3.690230 0.214159 0.146985 0
M  V30 38 F 4.164790 -0.661837 -0.748699 0
M  V30 39 H 2.625716 0.167747 -3.154290 0
M  V30 40 H 0.563478 3.018047 -2.639014 0
M  V30 41 H -1.423901 4.267872 -2.077868 0
M  V30 42 H -3.645235 4.408775 -1.034370 0
M  V30 43 H -4.609988 2.425882 0.104155 0
M  V30 44 H -3.359014 0.333134 0.210469 0
M  V30 45 H 2.097465 -1.465715 -2.079273 0
M  V30 46 H 1.275161 -1.972680 -0.656313 0
M  V30 47 H 0.464626 -2.263465 -3.472158 0
M  V30 48 H -1.637267 -1.850159 -2.743717 0
M  V30 49 H -1.432404 -3.575610 -2.622580 0
M  V30 50 H -1.947726 -4.644262 -0.582336 0
M  V30 51 H -2.325523 -4.584959 1.830915 0
M  V30 52 H -2.258490 -3.422653 3.966846 0
M  V30 53 H -1.786578 -1.414756 5.303683 0
M  V30 54 H -1.016736 0.664647 4.192518 0
M  V30 55 H -0.747219 0.742798 1.772567 0
M  V30 END ATOM
M  V30 BEGIN BOND
M  V30 1 2 1 2
M  V30 2 2 2 3
M  V30 3 1 2 4
M  V30 4 1 4 5
M  V30 5 2 5 6
M  V30 6 1 6 7
M  V30 7 2 7 8
M  V30 8 1 8 9
M  V30 9 2 9 10
M  V30 10 1 10 11
M  V30 11 2 11 12
M  V30 12 1 12 13
M  V30 13 2 13 14
M  V30 14 1 14 15
M  V30 15 1 15 16
M  V30 16 1 16 17
M  V30 17 1 17 18
M  V30 18 2 18 19
M  V30 19 1 19 20
M  V30 20 2 20 21
M  V30 21 1 21 22
M  V30 22 2 22 23
M  V30 23 1 23 24
M  V30 24 2 24 25
M  V30 25 1 25 26
M  V30 26 2 26 27
M  V30 27 1 2 28
M  V30 28 2 28 29
M  V30 29 1 29 30
M  V30 30 1 29 31
M  V30 31 1 31 32
M  V30 32 2 31 33
M  V30 33 1 33 34
M  V30 34 1 33 35
M  V30 35 1 35 36
M  V30 36 2 35 37
M  V30 37 1 37 38
M  V30 38 1 14 5
M  V30 39 1 27 18
M  V30 40 1 37 28
M  V30 41 1 12 7
M  V30 42 1 27 13
M  V30 43 1 26 21
M  V30 44 1 4 39
M  V30 45 1 6 40
M  V30 46 1 8 41
M  V30 47 1 9 42
M  V30 48 1 10 43
M  V30 49 1 11 44
M  V30 50 1 15 45
M  V30 51 1 15 46
M  V30 52 1 16 47
M  V30 53 1 17 48
M  V30 54 1 17 49
M  V30 55 1 19 50
M  V30 56 1 20 51
M  V30 57 1 22 52
M  V30 58 1 23 53
M  V30 59 1 24 54
M  V30 60 1 25 55
M  V30 END BOND
M  V30 END CTAB
M  END
>  <catalyst_id>  (1) 
GSIFBFVQBSVWLH_UHFFFAOYSA_S

>  <source_smiles>  (1) 
O=S(=O)(Nc1cc2ccccc2c2c1CNCc1ccc3ccccc3c1-2)c1c(F)c(F)c(F)c(F)c1F

>  <axial_configuration>  (1) 
S

>  <inchikey>  (1) 
GSIFBFVQBSVWLH-UHFFFAOYSA-N

>  <build_source>  (1) 
smiles+axial_bridged

>  <final_biaryl_angle_deg>  (1) 
-64.56

>  <n_valid_conformers>  (1) 
9

>  <rdkit_version>  (1) 
2025.09.6

>  <random_seed>  (1) 
42

>  <generated_at>  (1) 
2026-05-19T12:30:42

$$$$
