catalyst342
     RDKit          3D

  0  0  0  0  0  0  0  0  0  0999 V3000
M  V30 BEGIN CTAB
M  V30 COUNTS 126 136 0 0 0
M  V30 BEGIN ATOM
M  V30 1 C 8.498581 2.453227 -1.228655 0
M  V30 2 C 7.989396 1.032725 -1.033154 0
M  V30 3 C 6.634392 0.958302 -0.307544 0 CFG=1
M  V30 4 C 6.153262 -0.510076 -0.203521 0
M  V30 5 N 5.690657 -0.844980 1.161877 0
M  V30 6 C 6.847725 -0.724719 2.077393 0
M  V30 7 C 7.427623 0.697162 2.076140 0
M  V30 8 C 6.620705 1.578403 1.111455 0 CFG=2
M  V30 9 C 5.156275 1.562042 1.591413 0
M  V30 10 C 4.623873 0.101782 1.608855 0 CFG=1
M  V30 11 C 3.262880 -0.003358 0.830927 0 CFG=2
M  V30 12 O 2.306832 0.817500 1.543566 0
M  V30 13 C 1.292297 1.284187 0.730047 0
M  V30 14 N 1.668283 1.878387 -0.417854 0
M  V30 15 C 0.682413 2.343040 -1.199004 0
M  V30 16 C 1.055631 2.980584 -2.478004 0
M  V30 17 C 2.397748 3.046850 -2.903673 0
M  V30 18 C 2.752862 3.647142 -4.116641 0
M  V30 19 C 1.771223 4.198936 -4.934817 0
M  V30 20 C 0.436929 4.150411 -4.541841 0
M  V30 21 C 0.086039 3.547205 -3.329084 0
M  V30 22 N -0.620315 2.257111 -0.891416 0
M  V30 23 C -0.942304 1.646107 0.266091 0
M  V30 24 O -2.296080 1.633023 0.512651 0
M  V30 25 C -2.906688 0.363711 0.183675 0 CFG=2
M  V30 26 C -2.997186 0.068077 -1.322824 0
M  V30 27 C -3.168909 1.126330 -2.224339 0
M  V30 28 C -3.284586 0.847405 -3.569959 0
M  V30 29 N -3.270335 -0.398555 -4.080204 0
M  V30 30 C -3.127707 -1.426417 -3.230797 0
M  V30 31 C -3.133555 -2.703704 -3.768485 0
M  V30 32 C -2.997497 -3.840119 -2.970113 0
M  V30 33 C -2.847040 -3.712921 -1.596168 0
M  V30 34 O -2.713454 -4.893065 -0.920362 0
M  V30 35 C -2.436382 -4.812815 0.473699 0
M  V30 36 C -2.846420 -2.435960 -1.033453 0
M  V30 37 C -2.981896 -1.265869 -1.831738 0
M  V30 38 C -4.354312 0.276868 0.796993 0 CFG=2
M  V30 39 C -5.256128 1.493167 0.471272 0
M  V30 40 C -6.133738 1.822251 1.692580 0 CFG=2
M  V30 41 C -5.177346 2.299178 2.797200 0
M  V30 42 C -4.128505 1.208426 3.055537 0
M  V30 43 N -4.389863 -0.017572 2.268114 0
M  V30 44 C -5.756637 -0.493265 2.602152 0
M  V30 45 C -6.840279 0.547377 2.219097 0 CFG=2
M  V30 46 C -7.869597 -0.001594 1.215536 0
M  V30 47 C -8.779929 -1.058894 1.828008 0
M  V30 48 C -0.014728 1.168618 1.178288 0
M  V30 49 C -0.335973 0.617016 2.497184 0
M  V30 50 C -0.533002 -0.759785 2.684085 0
M  V30 51 C -0.813687 -1.278185 3.949801 0
M  V30 52 C -0.889356 -0.428120 5.049985 0
M  V30 53 C -0.681800 0.939675 4.887045 0
M  V30 54 C -0.404915 1.457751 3.619758 0
M  V30 55 C 2.681717 -1.416921 0.727836 0
M  V30 56 C 2.644233 -2.224686 1.872839 0
M  V30 57 C 2.035388 -3.460738 1.804019 0
M  V30 58 N 1.441519 -3.941942 0.696630 0
M  V30 59 C 1.473768 -3.188804 -0.413802 0
M  V30 60 C 0.852773 -3.691237 -1.548695 0
M  V30 61 C 0.804280 -2.981315 -2.752698 0
M  V30 62 C 1.403154 -1.736280 -2.834825 0
M  V30 63 O 1.446545 -0.927431 -3.934836 0
M  V30 64 C 0.617555 -1.294494 -5.031409 0
M  V30 65 C 2.048302 -1.222986 -1.707698 0
M  V30 66 C 2.086982 -1.915228 -0.470535 0
M  V30 67 H 8.776008 2.914844 -0.276650 0
M  V30 68 H 9.391006 2.447162 -1.861712 0
M  V30 69 H 7.744020 3.080223 -1.713305 0
M  V30 70 H 8.749643 0.449648 -0.501283 0
M  V30 71 H 7.881735 0.568920 -2.021918 0
M  V30 72 H 5.906435 1.508844 -0.920716 0
M  V30 73 H 6.947815 -1.211266 -0.491134 0
M  V30 74 H 5.350840 -0.688321 -0.928985 0
M  V30 75 H 7.623966 -1.445426 1.791707 0
M  V30 76 H 6.548883 -1.007447 3.093863 0
M  V30 77 H 7.381431 1.115289 3.089258 0
M  V30 78 H 8.484597 0.675421 1.789698 0
M  V30 79 H 6.995215 2.606355 1.113878 0
M  V30 80 H 5.094081 1.987937 2.601390 0
M  V30 81 H 4.554265 2.205596 0.938585 0
M  V30 82 H 4.400463 -0.125861 2.661041 0
M  V30 83 H 3.471432 0.404768 -0.161078 0
M  V30 84 H 3.186936 2.620926 -2.285385 0
M  V30 85 H 3.796247 3.678955 -4.419321 0
M  V30 86 H 2.045278 4.665068 -5.877960 0
M  V30 87 H -0.334369 4.579693 -5.177085 0
M  V30 88 H -0.965072 3.523864 -3.045878 0
M  V30 89 H -2.305611 -0.419740 0.649102 0
M  V30 90 H -3.196780 2.158505 -1.887324 0
M  V30 91 H -3.400361 1.645269 -4.297694 0
M  V30 92 H -3.249862 -2.820816 -4.843504 0
M  V30 93 H -3.005363 -4.825566 -3.428530 0
M  V30 94 H -2.289833 -5.831691 0.844654 0
M  V30 95 H -1.516209 -4.252874 0.664951 0
M  V30 96 H -3.282796 -4.377945 1.016128 0
M  V30 97 H -2.746809 -2.338627 0.041483 0
M  V30 98 H -4.817093 -0.600038 0.320877 0
M  V30 99 H -4.668548 2.379866 0.205597 0
M  V30 100 H -5.886069 1.263417 -0.396656 0
M  V30 101 H -6.858225 2.608066 1.451648 0
M  V30 102 H -5.736170 2.513373 3.716457 0
M  V30 103 H -4.681189 3.230044 2.495216 0
M  V30 104 H -3.133395 1.600045 2.840571 0
M  V30 105 H -4.112352 0.959580 4.123956 0
M  V30 106 H -5.927861 -1.459191 2.111233 0
M  V30 107 H -5.813437 -0.705897 3.677753 0
M  V30 108 H -7.382857 0.824817 3.133572 0
M  V30 109 H -8.496288 0.821570 0.851193 0
M  V30 110 H -7.368442 -0.432245 0.341403 0
M  V30 111 H -9.514582 -1.393940 1.089477 0
M  V30 112 H -8.216517 -1.935603 2.160667 0
M  V30 113 H -9.325869 -0.655645 2.686976 0
M  V30 114 H -0.465275 -1.444454 1.841227 0
M  V30 115 H -0.972628 -2.346317 4.073456 0
M  V30 116 H -1.109340 -0.832398 6.034615 0
M  V30 117 H -0.735884 1.603729 5.745602 0
M  V30 118 H -0.242084 2.528221 3.511691 0
M  V30 119 H 3.060720 -1.895315 2.818321 0
M  V30 120 H 1.993913 -4.110498 2.673046 0
M  V30 121 H 0.376950 -4.667967 -1.495837 0
M  V30 122 H 0.291723 -3.431969 -3.595181 0
M  V30 123 H 0.966078 -2.225633 -5.489994 0
M  V30 124 H -0.430573 -1.371208 -4.729172 0
M  V30 125 H 0.690167 -0.503559 -5.783808 0
M  V30 126 H 2.516200 -0.250496 -1.823785 0
M  V30 END ATOM
M  V30 BEGIN BOND
M  V30 1 1 1 2
M  V30 2 1 2 3
M  V30 3 1 3 4
M  V30 4 1 4 5
M  V30 5 1 5 6
M  V30 6 1 6 7
M  V30 7 1 7 8
M  V30 8 1 8 9
M  V30 9 1 9 10
M  V30 10 1 10 11
M  V30 11 1 11 12
M  V30 12 1 12 13
M  V30 13 2 13 14
M  V30 14 1 14 15
M  V30 15 1 15 16
M  V30 16 2 16 17
M  V30 17 1 17 18
M  V30 18 2 18 19
M  V30 19 1 19 20
M  V30 20 2 20 21
M  V30 21 2 15 22
M  V30 22 1 22 23
M  V30 23 1 23 24
M  V30 24 1 24 25
M  V30 25 1 25 26
M  V30 26 2 26 27
M  V30 27 1 27 28
M  V30 28 2 28 29
M  V30 29 1 29 30
M  V30 30 2 30 31
M  V30 31 1 31 32
M  V30 32 2 32 33
M  V30 33 1 33 34
M  V30 34 1 34 35
M  V30 35 1 33 36
M  V30 36 2 36 37
M  V30 37 1 25 38
M  V30 38 1 38 39
M  V30 39 1 39 40
M  V30 40 1 40 41
M  V30 41 1 41 42
M  V30 42 1 42 43
M  V30 43 1 43 44
M  V30 44 1 44 45
M  V30 45 1 45 46
M  V30 46 1 46 47
M  V30 47 2 23 48
M  V30 48 1 48 49
M  V30 49 2 49 50
M  V30 50 1 50 51
M  V30 51 2 51 52
M  V30 52 1 52 53
M  V30 53 2 53 54
M  V30 54 1 11 55
M  V30 55 2 55 56
M  V30 56 1 56 57
M  V30 57 2 57 58
M  V30 58 1 58 59
M  V30 59 2 59 60
M  V30 60 1 60 61
M  V30 61 2 61 62
M  V30 62 1 62 63
M  V30 63 1 63 64
M  V30 64 1 62 65
M  V30 65 2 65 66
M  V30 66 1 8 3
M  V30 67 1 48 13
M  V30 68 1 54 49
M  V30 69 1 66 55
M  V30 70 1 10 5
M  V30 71 1 21 16
M  V30 72 1 37 26
M  V30 73 1 43 38
M  V30 74 1 66 59
M  V30 75 1 37 30
M  V30 76 1 45 40
M  V30 77 1 1 67
M  V30 78 1 1 68
M  V30 79 1 1 69
M  V30 80 1 2 70
M  V30 81 1 2 71
M  V30 82 1 3 72 CFG=3
M  V30 83 1 4 73
M  V30 84 1 4 74
M  V30 85 1 6 75
M  V30 86 1 6 76
M  V30 87 1 7 77
M  V30 88 1 7 78
M  V30 89 1 8 79 CFG=3
M  V30 90 1 9 80
M  V30 91 1 9 81
M  V30 92 1 10 82 CFG=1
M  V30 93 1 11 83 CFG=3
M  V30 94 1 17 84
M  V30 95 1 18 85
M  V30 96 1 19 86
M  V30 97 1 20 87
M  V30 98 1 21 88
M  V30 99 1 25 89 CFG=1
M  V30 100 1 27 90
M  V30 101 1 28 91
M  V30 102 1 31 92
M  V30 103 1 32 93
M  V30 104 1 35 94
M  V30 105 1 35 95
M  V30 106 1 35 96
M  V30 107 1 36 97
M  V30 108 1 38 98 CFG=3
M  V30 109 1 39 99
M  V30 110 1 39 100
M  V30 111 1 40 101 CFG=3
M  V30 112 1 41 102
M  V30 113 1 41 103
M  V30 114 1 42 104
M  V30 115 1 42 105
M  V30 116 1 44 106
M  V30 117 1 44 107
M  V30 118 1 45 108 CFG=1
M  V30 119 1 46 109
M  V30 120 1 46 110
M  V30 121 1 47 111
M  V30 122 1 47 112
M  V30 123 1 47 113
M  V30 124 1 50 114
M  V30 125 1 51 115
M  V30 126 1 52 116
M  V30 127 1 53 117
M  V30 128 1 54 118
M  V30 129 1 56 119
M  V30 130 1 57 120
M  V30 131 1 60 121
M  V30 132 1 61 122
M  V30 133 1 64 123
M  V30 134 1 64 124
M  V30 135 1 64 125
M  V30 136 1 65 126
M  V30 END BOND
M  V30 END CTAB
M  END
>  <catalyst_id>  (1) 
SWKRDCRSJPRVNF_XJPDKSLPSA_NONE

>  <source_smiles>  (1) 
CC[C@H]1CN2CC[C@@H]1C[C@H]2[C@H](Oc1nc(-c2ccccc2)nc(O[C@H](c2ccnc3ccc(OC)cc23)[C@@H]2C[C@@H]3CCN2C[C@@H]3CC)c1-c1ccccc1)c1ccnc2ccc(OC)cc12

>  <axial_configuration>  (1) 
none

>  <inchikey>  (1) 
SWKRDCRSJPRVNF-XJPDKSLPSA-N

>  <build_source>  (1) 
smiles

>  <final_biaryl_angle_deg>  (1) 
2.98

>  <rdkit_version>  (1) 
2025.09.6

>  <random_seed>  (1) 
42

>  <generated_at>  (1) 
2026-05-19T12:34:04

$$$$
