catalyst229
     RDKit          3D

  0  0  0  0  0  0  0  0  0  0999 V3000
M  V30 BEGIN CTAB
M  V30 COUNTS 73 78 0 0 0
M  V30 BEGIN ATOM
M  V30 1 C -7.203785 -1.959698 0.734533 0
M  V30 2 C -5.896718 -1.669740 0.772282 0
M  V30 3 C -5.196395 -1.087453 1.977842 0 CFG=1
M  V30 4 C -3.995039 -1.958237 2.435895 0
M  V30 5 N -2.719639 -1.190560 2.447952 0
M  V30 6 C -2.867441 -0.063161 3.399302 0
M  V30 7 C -4.054317 0.844153 3.042329 0
M  V30 8 C -4.690739 0.355697 1.728629 0 CFG=1
M  V30 9 C -3.567482 0.372192 0.674634 0
M  V30 10 C -2.490270 -0.671325 1.050710 0 CFG=1
M  V30 11 C -1.017729 -0.145130 0.838767 0 CFG=1
M  V30 12 N -0.081389 -1.036219 1.573204 0
M  V30 13 C 1.163723 -0.694440 1.863733 0
M  V30 14 C 2.290468 -0.179637 1.260790 0
M  V30 15 N 2.610985 0.207901 0.043480 0
M  V30 16 C 3.834054 0.585139 -0.552483 0
M  V30 17 C 3.779972 1.257267 -1.786078 0
M  V30 18 C 4.935227 1.733165 -2.427849 0
M  V30 19 C 4.827780 2.439806 -3.756840 0
M  V30 20 F 4.808734 1.573151 -4.805158 0
M  V30 21 F 5.862899 3.293072 -3.993044 0
M  V30 22 F 3.696444 3.191616 -3.867492 0
M  V30 23 C 6.179135 1.514781 -1.823768 0
M  V30 24 C 6.268444 0.841847 -0.596637 0
M  V30 25 C 7.608062 0.622393 0.067052 0
M  V30 26 F 7.917033 1.608839 0.951346 0
M  V30 27 F 8.638680 0.585695 -0.824750 0
M  V30 28 F 7.678925 -0.547604 0.759176 0
M  V30 29 C 5.088792 0.397877 0.030512 0
M  V30 30 C 3.029055 -0.173961 2.548348 0
M  V30 31 O 4.080225 0.188221 3.020240 0
M  V30 32 C 1.860782 -0.838762 3.164074 0
M  V30 33 O 1.635444 -1.253619 4.273700 0
M  V30 34 C -0.665088 0.006262 -0.641159 0
M  V30 35 C -0.597910 1.309532 -1.180584 0
M  V30 36 O -0.864370 2.354332 -0.338868 0
M  V30 37 C -0.669017 3.673025 -0.839703 0
M  V30 38 C -0.266475 1.442128 -2.518669 0
M  V30 39 N 0.012499 0.408754 -3.338448 0
M  V30 40 C -0.069615 -0.833547 -2.848032 0
M  V30 41 C 0.202365 -1.877329 -3.721519 0
M  V30 42 C 0.153392 -3.210363 -3.318235 0
M  V30 43 C -0.173891 -3.510848 -2.007453 0
M  V30 44 C -0.449763 -2.476120 -1.112733 0
M  V30 45 C -0.407775 -1.111691 -1.502427 0
M  V30 46 H -7.653246 -2.381503 -0.159757 0
M  V30 47 H -7.855631 -1.784934 1.585032 0
M  V30 48 H -5.296306 -1.871529 -0.112936 0
M  V30 49 H -5.912535 -1.050136 2.811377 0
M  V30 50 H -3.875089 -2.850680 1.807963 0
M  V30 51 H -4.187075 -2.344706 3.445705 0
M  V30 52 H -2.996485 -0.458064 4.414959 0
M  V30 53 H -1.943345 0.525071 3.438037 0
M  V30 54 H -3.712552 1.880667 2.935892 0
M  V30 55 H -4.796007 0.830369 3.849867 0
M  V30 56 H -5.509676 1.020559 1.432096 0
M  V30 57 H -3.147973 1.383027 0.625134 0
M  V30 58 H -3.969002 0.149657 -0.320626 0
M  V30 59 H -2.620865 -1.531629 0.381501 0
M  V30 60 H -0.947622 0.822834 1.349152 0
M  V30 61 H -0.638112 -1.469552 2.328523 0
M  V30 62 H 1.895305 0.106351 -0.676088 0
M  V30 63 H 2.814257 1.425576 -2.263285 0
M  V30 64 H 7.087986 1.870932 -2.311642 0
M  V30 65 H 5.189945 -0.132081 0.972830 0
M  V30 66 H 0.365976 3.823532 -1.164274 0
M  V30 67 H -0.867668 4.372607 -0.022182 0
M  V30 68 H -1.374981 3.893773 -1.646759 0
M  V30 69 H -0.200496 2.406088 -3.012493 0
M  V30 70 H 0.461762 -1.645328 -4.752586 0
M  V30 71 H 0.373279 -4.003683 -4.027510 0
M  V30 72 H -0.211338 -4.544710 -1.673266 0
M  V30 73 H -0.690779 -2.759910 -0.091263 0
M  V30 END ATOM
M  V30 BEGIN BOND
M  V30 1 2 1 2
M  V30 2 1 2 3
M  V30 3 1 3 4
M  V30 4 1 4 5
M  V30 5 1 5 6
M  V30 6 1 6 7
M  V30 7 1 7 8
M  V30 8 1 8 9
M  V30 9 1 9 10
M  V30 10 1 10 11
M  V30 11 1 11 12
M  V30 12 1 12 13
M  V30 13 2 13 14
M  V30 14 1 14 15
M  V30 15 1 15 16
M  V30 16 2 16 17
M  V30 17 1 17 18
M  V30 18 1 18 19
M  V30 19 1 19 20
M  V30 20 1 19 21
M  V30 21 1 19 22
M  V30 22 2 18 23
M  V30 23 1 23 24
M  V30 24 1 24 25
M  V30 25 1 25 26
M  V30 26 1 25 27
M  V30 27 1 25 28
M  V30 28 2 24 29
M  V30 29 1 14 30
M  V30 30 2 30 31
M  V30 31 1 30 32
M  V30 32 2 32 33
M  V30 33 1 11 34
M  V30 34 2 34 35
M  V30 35 1 35 36
M  V30 36 1 36 37
M  V30 37 1 35 38
M  V30 38 2 38 39
M  V30 39 1 39 40
M  V30 40 2 40 41
M  V30 41 1 41 42
M  V30 42 2 42 43
M  V30 43 1 43 44
M  V30 44 2 44 45
M  V30 45 1 8 3
M  V30 46 1 32 13
M  V30 47 1 45 34
M  V30 48 1 10 5
M  V30 49 1 29 16
M  V30 50 1 45 40
M  V30 51 1 1 46
M  V30 52 1 1 47
M  V30 53 1 2 48
M  V30 54 1 3 49 CFG=1
M  V30 55 1 4 50
M  V30 56 1 4 51
M  V30 57 1 6 52
M  V30 58 1 6 53
M  V30 59 1 7 54
M  V30 60 1 7 55
M  V30 61 1 8 56 CFG=3
M  V30 62 1 9 57
M  V30 63 1 9 58
M  V30 64 1 10 59 CFG=3
M  V30 65 1 11 60 CFG=1
M  V30 66 1 12 61
M  V30 67 1 15 62
M  V30 68 1 17 63
M  V30 69 1 23 64
M  V30 70 1 29 65
M  V30 71 1 37 66
M  V30 72 1 37 67
M  V30 73 1 37 68
M  V30 74 1 38 69
M  V30 75 1 41 70
M  V30 76 1 42 71
M  V30 77 1 43 72
M  V30 78 1 44 73
M  V30 END BOND
M  V30 END CTAB
M  END
>  <catalyst_id>  (1) 
NWWTWVIQYLKYNZ_IGEKPOMNSA_NONE

>  <source_smiles>  (1) 
C=C[C@H]1CN2CC[C@H]1C[C@H]2[C@@H](Nc1c(Nc2cc(C(F)(F)F)cc(C(F)(F)F)c2)c(=O)c1=O)c1c(OC)cnc2ccccc12

>  <axial_configuration>  (1) 
none

>  <inchikey>  (1) 
NWWTWVIQYLKYNZ-IGEKPOMNSA-N

>  <build_source>  (1) 
smiles

>  <rdkit_version>  (1) 
2025.09.6

>  <random_seed>  (1) 
42

>  <generated_at>  (1) 
2026-05-19T12:34:37

$$$$
