catalyst263
     RDKit          3D

  0  0  0  0  0  0  0  0  0  0999 V3000
M  V30 BEGIN CTAB
M  V30 COUNTS 79 84 0 0 0
M  V30 BEGIN ATOM
M  V30 1 C -4.170063 -3.286926 -3.051153 0
M  V30 2 C -3.435165 -2.408418 -2.356847 0
M  V30 3 C -2.328963 -2.799952 -1.405454 0 CFG=1
M  V30 4 C -0.975668 -2.140174 -1.779801 0
M  V30 5 N -0.407259 -1.341064 -0.660050 0
M  V30 6 C -0.192484 -2.246727 0.493822 0
M  V30 7 C -1.486120 -2.953644 0.925639 0
M  V30 8 C -2.656900 -2.444943 0.065279 0 CFG=1
M  V30 9 C -2.705947 -0.919003 0.264711 0
M  V30 10 C -1.415433 -0.279052 -0.297395 0 CFG=1
M  V30 11 C -0.825382 0.843423 0.649068 0 CFG=1
M  V30 12 N 0.559124 1.130957 0.212733 0
M  V30 13 C 1.450541 1.790742 0.927006 0
M  V30 14 C 2.779663 2.126806 0.824356 0
M  V30 15 N 3.797824 1.976200 -0.000350 0
M  V30 16 C 3.723836 1.302295 -1.292167 0
M  V30 17 Si 4.505106 -0.433636 -1.199472 0 VAL=4
M  V30 18 C 6.357617 -0.263169 -0.940481 0
M  V30 19 C 3.769465 -1.411822 0.226279 0
M  V30 20 C 4.120337 -1.346710 -2.836104 0
M  V30 21 C 2.792741 -1.689108 -3.150615 0
M  V30 22 C 2.491866 -2.349328 -4.343558 0
M  V30 23 C 3.508978 -2.676515 -5.236462 0
M  V30 24 C 4.828554 -2.344595 -4.937814 0
M  V30 25 C 5.135847 -1.683463 -3.745978 0
M  V30 26 C 2.752553 2.848306 2.123081 0
M  V30 27 O 3.507031 3.472478 2.827634 0
M  V30 28 C 1.330853 2.456372 2.251857 0
M  V30 29 O 0.518876 2.606160 3.131592 0
M  V30 30 C -1.678331 2.109710 0.581235 0
M  V30 31 C -1.582896 2.919720 -0.563258 0
M  V30 32 C -2.376804 4.041821 -0.663252 0
M  V30 33 N -3.261998 4.412273 0.278228 0
M  V30 34 C -3.362756 3.658812 1.383303 0
M  V30 35 C -4.277551 4.061335 2.345085 0
M  V30 36 C -4.471240 3.353290 3.534404 0
M  V30 37 C -3.725853 2.210779 3.778768 0
M  V30 38 O -3.806137 1.416960 4.888604 0
M  V30 39 C -4.639691 1.876060 5.945799 0
M  V30 40 C -2.798695 1.789658 2.820856 0
M  V30 41 C -2.595934 2.489643 1.603421 0
M  V30 42 H -4.952787 -2.947125 -3.723188 0
M  V30 43 H -4.016271 -4.358356 -2.966596 0
M  V30 44 H -3.638902 -1.347052 -2.486678 0
M  V30 45 H -2.191528 -3.889438 -1.462019 0
M  V30 46 H -0.255743 -2.920917 -2.059111 0
M  V30 47 H -1.063396 -1.503745 -2.669943 0
M  V30 48 H 0.232102 -1.691225 1.338106 0
M  V30 49 H 0.566549 -2.994941 0.232653 0
M  V30 50 H -1.377976 -4.039047 0.813299 0
M  V30 51 H -1.682049 -2.757200 1.986561 0
M  V30 52 H -3.596070 -2.907836 0.388264 0
M  V30 53 H -3.582336 -0.491440 -0.235521 0
M  V30 54 H -2.822603 -0.712274 1.333660 0
M  V30 55 H -1.675420 0.217063 -1.243925 0
M  V30 56 H -0.761878 0.446691 1.665980 0
M  V30 57 H 0.860336 0.433190 -0.474578 0
M  V30 58 H 4.706509 2.395704 0.209205 0
M  V30 59 H 2.693099 1.226688 -1.653638 0
M  V30 60 H 4.277667 1.892766 -2.030303 0
M  V30 61 H 6.810659 0.327432 -1.742229 0
M  V30 62 H 6.566208 0.238019 0.009515 0
M  V30 63 H 6.839264 -1.245270 -0.919381 0
M  V30 64 H 4.019566 -0.946787 1.184392 0
M  V30 65 H 4.156631 -2.434990 0.232748 0
M  V30 66 H 2.681137 -1.456709 0.143036 0
M  V30 67 H 1.975640 -1.448748 -2.472373 0
M  V30 68 H 1.462161 -2.608689 -4.574852 0
M  V30 69 H 3.274316 -3.190982 -6.164357 0
M  V30 70 H 5.622474 -2.601429 -5.634560 0
M  V30 71 H 6.177731 -1.441278 -3.546934 0
M  V30 72 H -0.891988 2.680179 -1.366291 0
M  V30 73 H -2.323332 4.691390 -1.531977 0
M  V30 74 H -4.862222 4.960860 2.163357 0
M  V30 75 H -5.206743 3.726987 4.237997 0
M  V30 76 H -4.315949 2.857112 6.309218 0
M  V30 77 H -4.549096 1.167317 6.774599 0
M  V30 78 H -5.690097 1.895024 5.637465 0
M  V30 79 H -2.219208 0.903505 3.061263 0
M  V30 END ATOM
M  V30 BEGIN BOND
M  V30 1 2 1 2
M  V30 2 1 2 3
M  V30 3 1 3 4
M  V30 4 1 4 5
M  V30 5 1 5 6
M  V30 6 1 6 7
M  V30 7 1 7 8
M  V30 8 1 8 9
M  V30 9 1 9 10
M  V30 10 1 10 11
M  V30 11 1 11 12
M  V30 12 1 12 13
M  V30 13 2 13 14
M  V30 14 1 14 15
M  V30 15 1 15 16
M  V30 16 1 16 17
M  V30 17 1 17 18
M  V30 18 1 17 19
M  V30 19 1 17 20
M  V30 20 2 20 21
M  V30 21 1 21 22
M  V30 22 2 22 23
M  V30 23 1 23 24
M  V30 24 2 24 25
M  V30 25 1 14 26
M  V30 26 2 26 27
M  V30 27 1 26 28
M  V30 28 2 28 29
M  V30 29 1 11 30
M  V30 30 2 30 31
M  V30 31 1 31 32
M  V30 32 2 32 33
M  V30 33 1 33 34
M  V30 34 2 34 35
M  V30 35 1 35 36
M  V30 36 2 36 37
M  V30 37 1 37 38
M  V30 38 1 38 39
M  V30 39 1 37 40
M  V30 40 2 40 41
M  V30 41 1 8 3
M  V30 42 1 28 13
M  V30 43 1 41 30
M  V30 44 1 10 5
M  V30 45 1 25 20
M  V30 46 1 41 34
M  V30 47 1 1 42
M  V30 48 1 1 43
M  V30 49 1 2 44
M  V30 50 1 3 45 CFG=1
M  V30 51 1 4 46
M  V30 52 1 4 47
M  V30 53 1 6 48
M  V30 54 1 6 49
M  V30 55 1 7 50
M  V30 56 1 7 51
M  V30 57 1 8 52 CFG=1
M  V30 58 1 9 53
M  V30 59 1 9 54
M  V30 60 1 10 55 CFG=3
M  V30 61 1 11 56 CFG=1
M  V30 62 1 12 57
M  V30 63 1 15 58
M  V30 64 1 16 59
M  V30 65 1 16 60
M  V30 66 1 18 61
M  V30 67 1 18 62
M  V30 68 1 18 63
M  V30 69 1 19 64
M  V30 70 1 19 65
M  V30 71 1 19 66
M  V30 72 1 21 67
M  V30 73 1 22 68
M  V30 74 1 23 69
M  V30 75 1 24 70
M  V30 76 1 25 71
M  V30 77 1 31 72
M  V30 78 1 32 73
M  V30 79 1 35 74
M  V30 80 1 36 75
M  V30 81 1 39 76
M  V30 82 1 39 77
M  V30 83 1 39 78
M  V30 84 1 40 79
M  V30 END BOND
M  V30 END CTAB
M  END
>  <catalyst_id>  (1) 
PPJHHWOLSGXFSL_VXBCSTRESA_NONE

>  <source_smiles>  (1) 
C=C[C@H]1CN2CC[C@H]1C[C@H]2[C@@H](Nc1c(NC[Si](C)(C)c2ccccc2)c(=O)c1=O)c1ccnc2ccc(OC)cc12

>  <axial_configuration>  (1) 
none

>  <inchikey>  (1) 
PPJHHWOLSGXFSL-VXBCSTRESA-N

>  <build_source>  (1) 
smiles

>  <rdkit_version>  (1) 
2025.09.6

>  <random_seed>  (1) 
42

>  <generated_at>  (1) 
2026-05-19T12:34:28

$$$$
