catalyst233
     RDKit          3D

  0  0  0  0  0  0  0  0  0  0999 V3000
M  V30 BEGIN CTAB
M  V30 COUNTS 38 39 0 0 0
M  V30 BEGIN ATOM
M  V30 1 C -1.195354 -0.966865 2.500365 0
M  V30 2 N -0.258039 -1.238007 1.408321 0
M  V30 3 C -0.433497 -2.615384 0.944618 0
M  V30 4 C -0.314687 -0.260348 0.270258 0 CFG=1
M  V30 5 C -1.729299 0.174371 -0.136431 0
M  V30 6 C -2.372585 1.271396 0.460871 0
M  V30 7 C -3.661538 1.644243 0.073824 0
M  V30 8 C -4.329204 0.926031 -0.914816 0
M  V30 9 C -3.709863 -0.166523 -1.516292 0
M  V30 10 C -2.420996 -0.540349 -1.129941 0
M  V30 11 C 0.690010 0.972623 0.446097 0 CFG=1
M  V30 12 N 0.863206 1.436185 1.839376 0
M  V30 13 C 2.065584 0.664152 -0.150065 0
M  V30 14 C 2.571325 1.460853 -1.190033 0
M  V30 15 C 3.826981 1.199250 -1.742015 0
M  V30 16 C 4.595271 0.141766 -1.260312 0
M  V30 17 C 4.110586 -0.654043 -0.224970 0
M  V30 18 C 2.855618 -0.394084 0.328581 0
M  V30 19 H -2.238295 -1.150968 2.218525 0
M  V30 20 H -0.967558 -1.618845 3.352013 0
M  V30 21 H -1.115015 0.055853 2.877741 0
M  V30 22 H 0.314402 -2.869725 0.185349 0
M  V30 23 H -0.280438 -3.318999 1.771013 0
M  V30 24 H -1.429476 -2.795327 0.526605 0
M  V30 25 H 0.076353 -0.783024 -0.616495 0
M  V30 26 H -1.874934 1.843420 1.242205 0
M  V30 27 H -4.143442 2.495299 0.547948 0
M  V30 28 H -5.332361 1.216766 -1.214649 0
M  V30 29 H -4.230081 -0.729411 -2.286790 0
M  V30 30 H -1.956346 -1.397387 -1.612584 0
M  V30 31 H 0.284169 1.825706 -0.112334 0
M  V30 32 H 1.066634 0.601533 2.392316 0
M  V30 33 H 1.699025 2.016749 1.883734 0
M  V30 34 H 1.989279 2.294051 -1.578603 0
M  V30 35 H 4.205844 1.822851 -2.547630 0
M  V30 36 H 5.572658 -0.060672 -1.690069 0
M  V30 37 H 4.709705 -1.477714 0.154322 0
M  V30 38 H 2.496359 -1.025423 1.138621 0
M  V30 END ATOM
M  V30 BEGIN BOND
M  V30 1 1 1 2
M  V30 2 1 2 3
M  V30 3 1 2 4
M  V30 4 1 4 5
M  V30 5 2 5 6
M  V30 6 1 6 7
M  V30 7 2 7 8
M  V30 8 1 8 9
M  V30 9 2 9 10
M  V30 10 1 4 11
M  V30 11 1 11 12
M  V30 12 1 11 13
M  V30 13 2 13 14
M  V30 14 1 14 15
M  V30 15 2 15 16
M  V30 16 1 16 17
M  V30 17 2 17 18
M  V30 18 1 10 5
M  V30 19 1 18 13
M  V30 20 1 1 19
M  V30 21 1 1 20
M  V30 22 1 1 21
M  V30 23 1 3 22
M  V30 24 1 3 23
M  V30 25 1 3 24
M  V30 26 1 4 25 CFG=3
M  V30 27 1 6 26
M  V30 28 1 7 27
M  V30 29 1 8 28
M  V30 30 1 9 29
M  V30 31 1 10 30
M  V30 32 1 11 31 CFG=3
M  V30 33 1 12 32
M  V30 34 1 12 33
M  V30 35 1 14 34
M  V30 36 1 15 35
M  V30 37 1 16 36
M  V30 38 1 17 37
M  V30 39 1 18 38
M  V30 END BOND
M  V30 END CTAB
M  END
>  <catalyst_id>  (1) 
OEDXASUOCKHCRL_HOTGVXAUSA_NONE

>  <source_smiles>  (1) 
CN(C)[C@@H](c1ccccc1)[C@@H](N)c1ccccc1

>  <axial_configuration>  (1) 
none

>  <inchikey>  (1) 
OEDXASUOCKHCRL-HOTGVXAUSA-N

>  <build_source>  (1) 
smiles

>  <rdkit_version>  (1) 
2025.09.6

>  <random_seed>  (1) 
42

>  <generated_at>  (1) 
2026-05-19T12:37:16

$$$$
