catalyst218
     RDKit          3D

  0  0  0  0  0  0  0  0  0  0999 V3000
M  V30 BEGIN CTAB
M  V30 COUNTS 52 55 0 0 0
M  V30 BEGIN ATOM
M  V30 1 C -2.720597 3.366880 -0.622436 0
M  V30 2 C -1.602216 3.025312 -1.275657 0
M  V30 3 C -0.270720 2.814483 -0.626481 0
M  V30 4 O 0.213070 1.498103 -0.892163 0
M  V30 5 C -0.390714 0.483804 -0.064136 0 CFG=1
M  V30 6 C -1.436313 -0.293180 -0.869074 0
M  V30 7 C -1.282620 -0.417737 -2.256987 0
M  V30 8 C -2.225557 -1.122077 -2.975925 0
M  V30 9 N -3.299121 -1.715497 -2.421764 0
M  V30 10 C -3.459081 -1.616247 -1.094107 0
M  V30 11 C -4.568319 -2.237754 -0.534957 0
M  V30 12 C -4.825316 -2.204633 0.836363 0
M  V30 13 C -3.944552 -1.532966 1.664286 0
M  V30 14 O -4.139116 -1.470196 3.011149 0
M  V30 15 C -2.824251 -0.898338 1.138912 0
M  V30 16 C -2.556323 -0.920089 -0.252243 0
M  V30 17 C 0.698192 -0.493346 0.505657 0 CFG=1
M  V30 18 C 1.696756 -1.019341 -0.556830 0
M  V30 19 C 3.115777 -1.064447 0.042186 0 CFG=2
M  V30 20 C 3.029346 -1.848292 1.365512 0
M  V30 21 C 2.134259 -1.082862 2.355263 0
M  V30 22 N 1.438430 0.050828 1.697194 0
M  V30 23 C 2.471448 1.026823 1.265279 0
M  V30 24 C 3.572782 0.373122 0.391197 0 CFG=2
M  V30 25 C 3.890258 1.202316 -0.831049 0
M  V30 26 C 5.117215 1.639342 -1.143242 0
M  V30 27 H -2.733668 3.513848 0.453011 0
M  V30 28 H -3.656971 3.493815 -1.157422 0
M  V30 29 H -1.641179 2.880478 -2.352394 0
M  V30 30 H -0.278804 3.019097 0.450475 0
M  V30 31 H 0.443654 3.512339 -1.076351 0
M  V30 32 H -0.888086 0.970231 0.783099 0
M  V30 33 H -0.443594 0.035993 -2.775285 0
M  V30 34 H -2.139941 -1.231296 -4.053142 0
M  V30 35 H -5.254584 -2.767304 -1.192530 0
M  V30 36 H -5.705218 -2.706103 1.225170 0
M  V30 37 H -4.953612 -1.951142 3.233062 0
M  V30 38 H -2.162419 -0.392306 1.836256 0
M  V30 39 H 0.142228 -1.363186 0.885467 0
M  V30 40 H 1.695528 -0.414020 -1.467689 0
M  V30 41 H 1.397358 -2.031341 -0.858271 0
M  V30 42 H 3.812336 -1.551890 -0.648911 0
M  V30 43 H 2.618474 -2.848359 1.181549 0
M  V30 44 H 4.029072 -1.982056 1.795069 0
M  V30 45 H 2.732898 -0.711811 3.196963 0
M  V30 46 H 1.399557 -1.765619 2.799850 0
M  V30 47 H 2.005191 1.883845 0.771437 0
M  V30 48 H 2.940529 1.455853 2.161365 0
M  V30 49 H 4.483897 0.293590 1.001951 0
M  V30 50 H 3.061782 1.463523 -1.487990 0
M  V30 51 H 5.282137 2.236346 -2.035165 0
M  V30 52 H 5.980719 1.413462 -0.525519 0
M  V30 END ATOM
M  V30 BEGIN BOND
M  V30 1 2 1 2
M  V30 2 1 2 3
M  V30 3 1 3 4
M  V30 4 1 4 5
M  V30 5 1 5 6
M  V30 6 2 6 7
M  V30 7 1 7 8
M  V30 8 2 8 9
M  V30 9 1 9 10
M  V30 10 2 10 11
M  V30 11 1 11 12
M  V30 12 2 12 13
M  V30 13 1 13 14
M  V30 14 1 13 15
M  V30 15 2 15 16
M  V30 16 1 5 17
M  V30 17 1 17 18
M  V30 18 1 18 19
M  V30 19 1 19 20
M  V30 20 1 20 21
M  V30 21 1 21 22
M  V30 22 1 22 23
M  V30 23 1 23 24
M  V30 24 1 24 25
M  V30 25 2 25 26
M  V30 26 1 16 6
M  V30 27 1 22 17
M  V30 28 1 16 10
M  V30 29 1 24 19
M  V30 30 1 1 27
M  V30 31 1 1 28
M  V30 32 1 2 29
M  V30 33 1 3 30
M  V30 34 1 3 31
M  V30 35 1 5 32 CFG=1
M  V30 36 1 7 33
M  V30 37 1 8 34
M  V30 38 1 11 35
M  V30 39 1 12 36
M  V30 40 1 14 37
M  V30 41 1 15 38
M  V30 42 1 17 39 CFG=1
M  V30 43 1 18 40
M  V30 44 1 18 41
M  V30 45 1 19 42 CFG=3
M  V30 46 1 20 43
M  V30 47 1 20 44
M  V30 48 1 21 45
M  V30 49 1 21 46
M  V30 50 1 23 47
M  V30 51 1 23 48
M  V30 52 1 24 49 CFG=1
M  V30 53 1 25 50
M  V30 54 1 26 51
M  V30 55 1 26 52
M  V30 END BOND
M  V30 END CTAB
M  END
>  <catalyst_id>  (1) 
NMOXEOXJFZLZJK_FRMGNDQPSA_NONE

>  <source_smiles>  (1) 
C=CCO[C@@H](c1ccnc2ccc(O)cc12)[C@H]1C[C@@H]2CCN1C[C@@H]2C=C

>  <axial_configuration>  (1) 
none

>  <inchikey>  (1) 
NMOXEOXJFZLZJK-FRMGNDQPSA-N

>  <build_source>  (1) 
smiles

>  <rdkit_version>  (1) 
2025.09.6

>  <random_seed>  (1) 
42

>  <generated_at>  (1) 
2026-05-19T12:37:07

$$$$
