catalyst1
     RDKit          3D

  0  0  0  0  0  0  0  0  0  0999 V3000
M  V30 BEGIN CTAB
M  V30 COUNTS 74 78 0 0 0
M  V30 BEGIN ATOM
M  V30 1 O -0.118053 0.336949 4.425956 0
M  V30 2 C -0.357911 -0.337404 3.454006 0
M  V30 3 C 0.345257 -0.881705 2.264700 0
M  V30 4 N 1.615018 -0.736771 1.933397 0
M  V30 5 C 2.145368 -1.040236 0.596683 0 CFG=2
M  V30 6 C 2.491766 -2.531721 0.496294 0
M  V30 7 C 3.089434 -2.869978 -0.866083 0
M  V30 8 C 4.314395 -2.015455 -1.172603 0
M  V30 9 C 4.017323 -0.519940 -1.054993 0
M  V30 10 C 3.422225 -0.170197 0.324121 0 CFG=1
M  V30 11 N 3.184170 1.274873 0.552577 0
M  V30 12 C 4.393477 2.092554 0.521845 0
M  V30 13 C 4.131518 3.443554 1.198587 0
M  V30 14 C 2.749584 4.021560 0.883965 0
M  V30 15 C 2.160736 3.384353 -0.365526 0
M  V30 16 C 2.083594 1.857141 -0.228483 0
M  V30 17 C -0.809302 -1.450841 1.782376 0
M  V30 18 N -1.178503 -2.141216 0.718637 0
M  V30 19 C -2.569588 -2.165561 0.224750 0 CFG=2
M  V30 20 C -2.820618 -3.562009 -0.369696 0
M  V30 21 C -4.197986 -3.673407 -1.011857 0
M  V30 22 C -4.403494 -2.601384 -2.074511 0
M  V30 23 C -4.191120 -1.201413 -1.503502 0
M  V30 24 C -2.796627 -1.049927 -0.858496 0 CFG=1
M  V30 25 N -2.520955 0.312603 -0.339057 0
M  V30 26 C -2.050150 1.232769 -1.383169 0
M  V30 27 C -2.169653 2.715815 -1.005772 0
M  V30 28 C -2.009888 2.926001 0.492515 0
M  V30 29 C -3.028810 2.096590 1.275928 0
M  V30 30 C -3.574636 0.900138 0.486121 0
M  V30 31 C -1.593132 -0.980961 2.954692 0
M  V30 32 O -2.716760 -1.038106 3.394767 0
M  V30 33 H 2.153275 0.016372 2.377517 0
M  V30 34 H 1.389730 -0.799094 -0.163298 0
M  V30 35 H 1.600320 -3.147437 0.660058 0
M  V30 36 H 3.202617 -2.805485 1.286990 0
M  V30 37 H 2.332288 -2.716931 -1.644992 0
M  V30 38 H 3.365413 -3.930161 -0.893457 0
M  V30 39 H 5.124185 -2.279578 -0.481165 0
M  V30 40 H 4.674639 -2.239104 -2.183213 0
M  V30 41 H 3.327484 -0.234779 -1.857529 0
M  V30 42 H 4.949985 0.029533 -1.224688 0
M  V30 43 H 4.161827 -0.473351 1.080717 0
M  V30 44 H 5.215415 1.602536 1.057778 0
M  V30 45 H 4.735286 2.250547 -0.508809 0
M  V30 46 H 4.231742 3.344319 2.286651 0
M  V30 47 H 4.906833 4.150693 0.879708 0
M  V30 48 H 2.814646 5.109088 0.767951 0
M  V30 49 H 2.078105 3.836712 1.732117 0
M  V30 50 H 1.161521 3.789329 -0.561192 0
M  V30 51 H 2.783893 3.644982 -1.230554 0
M  V30 52 H 2.031161 1.441063 -1.240345 0
M  V30 53 H 1.139855 1.605168 0.267283 0
M  V30 54 H -0.506971 -2.248224 -0.038050 0
M  V30 55 H -3.276942 -2.028319 1.051234 0
M  V30 56 H -2.053135 -3.793844 -1.120313 0
M  V30 57 H -2.721889 -4.321797 0.415605 0
M  V30 58 H -4.314416 -4.665344 -1.462804 0
M  V30 59 H -4.971607 -3.580171 -0.239902 0
M  V30 60 H -3.708418 -2.768094 -2.906500 0
M  V30 61 H -5.416841 -2.680480 -2.484287 0
M  V30 62 H -4.978956 -1.010101 -0.764655 0
M  V30 63 H -4.322806 -0.469330 -2.308393 0
M  V30 64 H -2.050435 -1.249509 -1.642845 0
M  V30 65 H -0.995634 1.004401 -1.581238 0
M  V30 66 H -2.588603 1.085466 -2.327107 0
M  V30 67 H -1.418401 3.297913 -1.551271 0
M  V30 68 H -3.152149 3.093758 -1.316418 0
M  V30 69 H -2.113891 3.986690 0.746431 0
M  V30 70 H -0.997662 2.630783 0.793666 0
M  V30 71 H -2.561832 1.756570 2.207599 0
M  V30 72 H -3.872069 2.733806 1.569010 0
M  V30 73 H -4.418292 1.226865 -0.135618 0
M  V30 74 H -3.975951 0.177874 1.204860 0
M  V30 END ATOM
M  V30 BEGIN BOND
M  V30 1 2 1 2
M  V30 2 1 2 3
M  V30 3 1 3 4
M  V30 4 1 4 5
M  V30 5 1 5 6
M  V30 6 1 6 7
M  V30 7 1 7 8
M  V30 8 1 8 9
M  V30 9 1 9 10
M  V30 10 1 10 11
M  V30 11 1 11 12
M  V30 12 1 12 13
M  V30 13 1 13 14
M  V30 14 1 14 15
M  V30 15 1 15 16
M  V30 16 2 3 17
M  V30 17 1 17 18
M  V30 18 1 18 19
M  V30 19 1 19 20
M  V30 20 1 20 21
M  V30 21 1 21 22
M  V30 22 1 22 23
M  V30 23 1 23 24
M  V30 24 1 24 25
M  V30 25 1 25 26
M  V30 26 1 26 27
M  V30 27 1 27 28
M  V30 28 1 28 29
M  V30 29 1 29 30
M  V30 30 1 17 31
M  V30 31 2 31 32
M  V30 32 1 31 2
M  V30 33 1 10 5
M  V30 34 1 16 11
M  V30 35 1 24 19
M  V30 36 1 30 25
M  V30 37 1 4 33
M  V30 38 1 5 34 CFG=3
M  V30 39 1 6 35
M  V30 40 1 6 36
M  V30 41 1 7 37
M  V30 42 1 7 38
M  V30 43 1 8 39
M  V30 44 1 8 40
M  V30 45 1 9 41
M  V30 46 1 9 42
M  V30 47 1 10 43 CFG=1
M  V30 48 1 12 44
M  V30 49 1 12 45
M  V30 50 1 13 46
M  V30 51 1 13 47
M  V30 52 1 14 48
M  V30 53 1 14 49
M  V30 54 1 15 50
M  V30 55 1 15 51
M  V30 56 1 16 52
M  V30 57 1 16 53
M  V30 58 1 18 54
M  V30 59 1 19 55 CFG=1
M  V30 60 1 20 56
M  V30 61 1 20 57
M  V30 62 1 21 58
M  V30 63 1 21 59
M  V30 64 1 22 60
M  V30 65 1 22 61
M  V30 66 1 23 62
M  V30 67 1 23 63
M  V30 68 1 24 64 CFG=3
M  V30 69 1 26 65
M  V30 70 1 26 66
M  V30 71 1 27 67
M  V30 72 1 27 68
M  V30 73 1 28 69
M  V30 74 1 28 70
M  V30 75 1 29 71
M  V30 76 1 29 72
M  V30 77 1 30 73
M  V30 78 1 30 74
M  V30 END BOND
M  V30 END CTAB
M  END
>  <catalyst_id>  (1) 
ACHBOCGESYEOHR_GXRSIYKFSA_NONE

>  <source_smiles>  (1) 
O=c1c(N[C@@H]2CCCC[C@H]2N2CCCCC2)c(N[C@@H]2CCCC[C@H]2N2CCCCC2)c1=O

>  <axial_configuration>  (1) 
none

>  <inchikey>  (1) 
ACHBOCGESYEOHR-GXRSIYKFSA-N

>  <build_source>  (1) 
smiles

>  <rdkit_version>  (1) 
2025.09.6

>  <random_seed>  (1) 
42

>  <generated_at>  (1) 
2026-05-19T12:39:22

$$$$
