catalyst403
     RDKit          3D

  0  0  0  0  0  0  0  0  0  0999 V3000
M  V30 BEGIN CTAB
M  V30 COUNTS 19 20 0 0 0
M  V30 BEGIN ATOM
M  V30 1 C -1.421736 -0.356944 -1.291176 0
M  V30 2 C -1.771666 0.899226 -0.523993 0
M  V30 3 N -0.550157 1.159189 0.237587 0
M  V30 4 C -0.092422 -0.157812 0.725248 0 CFG=2
M  V30 5 C 1.383127 -0.207768 0.844547 0
M  V30 6 N 2.126168 -0.996285 1.593103 0
M  V30 7 N 3.431486 -0.652426 1.326572 0
M  V30 8 N 3.494152 0.327035 0.434362 0
M  V30 9 N 2.219226 0.604920 0.135833 0
M  V30 10 C -0.625860 -1.176881 -0.287192 0
M  V30 11 H -2.306570 -0.889160 -1.652378 0
M  V30 12 H -0.792319 -0.114089 -2.156273 0
M  V30 13 H -2.017487 1.733136 -1.187050 0
M  V30 14 H -2.616890 0.724754 0.152045 0
M  V30 15 H -0.758279 1.763116 1.034502 0
M  V30 16 H -0.540356 -0.355226 1.707413 0
M  V30 17 H 1.983953 1.338413 -0.521435 0
M  V30 18 H 0.151636 -1.761207 -0.791690 0
M  V30 19 H -1.296003 -1.881990 0.219974 0
M  V30 END ATOM
M  V30 BEGIN BOND
M  V30 1 1 1 2
M  V30 2 1 2 3
M  V30 3 1 3 4
M  V30 4 1 4 5
M  V30 5 2 5 6
M  V30 6 1 6 7
M  V30 7 2 7 8
M  V30 8 1 8 9
M  V30 9 1 4 10
M  V30 10 1 10 1
M  V30 11 1 9 5
M  V30 12 1 1 11
M  V30 13 1 1 12
M  V30 14 1 2 13
M  V30 15 1 2 14
M  V30 16 1 3 15
M  V30 17 1 4 16 CFG=1
M  V30 18 1 9 17
M  V30 19 1 10 18
M  V30 20 1 10 19
M  V30 END BOND
M  V30 END CTAB
M  END
>  <catalyst_id>  (1) 
XUHYQIQIENDJER_BYPYZUCNSA_NONE

>  <source_smiles>  (1) 
C1CN[C@H](c2nnn[nH]2)C1

>  <axial_configuration>  (1) 
none

>  <inchikey>  (1) 
XUHYQIQIENDJER-BYPYZUCNSA-N

>  <build_source>  (1) 
smiles

>  <rdkit_version>  (1) 
2025.09.6

>  <random_seed>  (1) 
42

>  <generated_at>  (1) 
2026-05-19T12:29:45

$$$$
