catalyst321
     RDKit          3D

  0  0  0  0  0  0  0  0  0  0999 V3000
M  V30 BEGIN CTAB
M  V30 COUNTS 116 127 0 0 0
M  V30 BEGIN ATOM
M  V30 1 S -1.083972 -4.351488 2.654821 0
M  V30 2 C -0.494203 -3.908924 1.158524 0
M  V30 3 N 0.813718 -3.889575 0.776468 0
M  V30 4 C 1.990099 -3.887512 1.656487 0 CFG=1
M  V30 5 C 2.402303 -5.293802 2.113411 0
M  V30 6 C 3.626713 -5.229278 3.027221 0
M  V30 7 C 4.795290 -4.486630 2.382349 0
M  V30 8 C 4.391066 -3.105997 1.857688 0
M  V30 9 C 3.190863 -3.219760 0.905116 0 CFG=2
M  V30 10 N 2.786165 -1.983628 0.194029 0
M  V30 11 C 2.326247 -0.860517 1.036189 0
M  V30 12 C 3.357349 0.218650 1.318680 0
M  V30 13 C 3.829649 0.391990 2.623887 0
M  V30 14 C 4.838247 1.311251 2.892421 0
M  V30 15 C 5.427933 2.051860 1.862669 0
M  V30 16 C 6.486929 2.927559 2.156954 0
M  V30 17 C 7.124343 3.649777 1.150889 0
M  V30 18 C 6.715706 3.497683 -0.165320 0
M  V30 19 C 5.659183 2.635826 -0.469996 0
M  V30 20 C 4.966982 1.906010 0.529192 0
M  V30 21 C 3.865058 1.027702 0.265104 0
M  V30 22 C 3.270940 0.872134 -1.100317 0
M  V30 23 C 3.263644 -0.423329 -1.680385 0
M  V30 24 C 2.764096 -0.616493 -2.971982 0
M  V30 25 C 2.253040 0.456336 -3.694386 0
M  V30 26 C 2.185735 1.735034 -3.130172 0
M  V30 27 C 1.631577 2.792059 -3.871899 0
M  V30 28 C 1.513880 4.068634 -3.327132 0
M  V30 29 C 1.927734 4.298115 -2.023684 0
M  V30 30 C 2.486148 3.257213 -1.277897 0
M  V30 31 C 2.663580 1.956866 -1.812482 0
M  V30 32 C 3.736235 -1.615369 -0.869772 0
M  V30 33 N -1.397320 -3.525230 0.215628 0
M  V30 34 C -1.179406 -2.859740 -1.074707 0 CFG=1
M  V30 35 C -0.762451 -3.860905 -2.162422 0
M  V30 36 C -0.541038 -3.162003 -3.501982 0
M  V30 37 C -1.754796 -2.343916 -3.933141 0
M  V30 38 C -2.204628 -1.365352 -2.846468 0
M  V30 39 C -2.471451 -2.100393 -1.521913 0 CFG=2
M  V30 40 N -3.043149 -1.281481 -0.431791 0
M  V30 41 C -4.468275 -0.975488 -0.642161 0
M  V30 42 C -5.084685 -0.235766 0.530255 0
M  V30 43 C -5.930978 -0.915281 1.411888 0
M  V30 44 C -6.423919 -0.275197 2.544155 0
M  V30 45 C -6.046407 1.037325 2.850027 0
M  V30 46 C -6.516328 1.637004 4.030975 0
M  V30 47 C -6.123004 2.923925 4.390804 0
M  V30 48 C -5.244540 3.624104 3.577908 0
M  V30 49 C -4.774882 3.041742 2.398020 0
M  V30 50 C -5.176248 1.747018 1.982818 0
M  V30 51 C -4.736376 1.118972 0.772072 0
M  V30 52 C -3.849321 1.804708 -0.218344 0
M  V30 53 C -2.590973 1.213261 -0.517505 0
M  V30 54 C -1.692908 1.872660 -1.362440 0
M  V30 55 C -2.049426 3.072959 -1.967856 0
M  V30 56 C -3.318050 3.629177 -1.774925 0
M  V30 57 C -3.668015 4.812031 -2.448241 0
M  V30 58 C -4.935475 5.372253 -2.306723 0
M  V30 59 C -5.872471 4.750611 -1.495109 0
M  V30 60 C -5.534165 3.578238 -0.814799 0
M  V30 61 C -4.246619 2.993320 -0.913014 0
M  V30 62 C -2.225146 -0.149287 0.048249 0
M  V30 63 H 0.997509 -3.377717 -0.074698 0
M  V30 64 H 1.736247 -3.294153 2.543249 0
M  V30 65 H 2.624339 -5.921112 1.240507 0
M  V30 66 H 1.587513 -5.792360 2.647236 0
M  V30 67 H 3.940221 -6.245043 3.293534 0
M  V30 68 H 3.352132 -4.726118 3.962714 0
M  V30 69 H 5.607950 -4.379085 3.109755 0
M  V30 70 H 5.189783 -5.086483 1.552718 0
M  V30 71 H 4.143019 -2.466413 2.711021 0
M  V30 72 H 5.253496 -2.657673 1.353357 0
M  V30 73 H 3.471824 -3.933295 0.115235 0
M  V30 74 H 1.902919 -1.217666 1.981136 0
M  V30 75 H 1.466597 -0.387855 0.541134 0
M  V30 76 H 3.422866 -0.198440 3.441962 0
M  V30 77 H 5.184708 1.419771 3.918338 0
M  V30 78 H 6.833379 3.047056 3.181625 0
M  V30 79 H 7.944493 4.319155 1.395448 0
M  V30 80 H 7.215123 4.044550 -0.960676 0
M  V30 81 H 5.382844 2.534487 -1.517669 0
M  V30 82 H 2.764237 -1.606993 -3.420792 0
M  V30 83 H 1.880179 0.276941 -4.700885 0
M  V30 84 H 1.279675 2.625996 -4.888247 0
M  V30 85 H 1.085134 4.875935 -3.914542 0
M  V30 86 H 1.820884 5.284433 -1.579521 0
M  V30 87 H 2.786450 3.478559 -0.255308 0
M  V30 88 H 4.744085 -1.417433 -0.483644 0
M  V30 89 H 3.852627 -2.467869 -1.551979 0
M  V30 90 H -2.336444 -3.419163 0.590495 0
M  V30 91 H -0.364911 -2.138548 -0.939761 0
M  V30 92 H 0.155050 -4.387772 -1.878269 0
M  V30 93 H -1.535458 -4.632364 -2.273605 0
M  V30 94 H 0.330056 -2.501541 -3.424247 0
M  V30 95 H -0.307521 -3.906486 -4.271419 0
M  V30 96 H -2.582208 -3.021972 -4.176194 0
M  V30 97 H -1.517474 -1.790883 -4.849091 0
M  V30 98 H -3.103130 -0.844794 -3.194442 0
M  V30 99 H -1.420926 -0.612286 -2.714659 0
M  V30 100 H -3.213079 -2.886473 -1.730598 0
M  V30 101 H -5.016999 -1.916604 -0.779686 0
M  V30 102 H -4.641914 -0.405370 -1.563610 0
M  V30 103 H -6.194750 -1.954991 1.233201 0
M  V30 104 H -7.079537 -0.830307 3.211996 0
M  V30 105 H -7.189120 1.094861 4.692413 0
M  V30 106 H -6.491245 3.369830 5.310497 0
M  V30 107 H -4.916594 4.621862 3.856770 0
M  V30 108 H -4.072450 3.618816 1.799914 0
M  V30 109 H -0.710636 1.451298 -1.566532 0
M  V30 110 H -1.329633 3.557265 -2.622841 0
M  V30 111 H -2.950971 5.305044 -3.101331 0
M  V30 112 H -5.191365 6.285038 -2.837430 0
M  V30 113 H -6.868931 5.170563 -1.386939 0
M  V30 114 H -6.303656 3.114814 -0.200203 0
M  V30 115 H -2.308961 -0.098963 1.142636 0
M  V30 116 H -1.157258 -0.333712 -0.110741 0
M  V30 END ATOM
M  V30 BEGIN BOND
M  V30 1 2 1 2
M  V30 2 1 2 3
M  V30 3 1 3 4
M  V30 4 1 4 5
M  V30 5 1 5 6
M  V30 6 1 6 7
M  V30 7 1 7 8
M  V30 8 1 8 9
M  V30 9 1 9 10
M  V30 10 1 10 11
M  V30 11 1 11 12
M  V30 12 2 12 13
M  V30 13 1 13 14
M  V30 14 2 14 15
M  V30 15 1 15 16
M  V30 16 2 16 17
M  V30 17 1 17 18
M  V30 18 2 18 19
M  V30 19 1 19 20
M  V30 20 2 20 21
M  V30 21 1 21 22
M  V30 22 2 22 23
M  V30 23 1 23 24
M  V30 24 2 24 25
M  V30 25 1 25 26
M  V30 26 2 26 27
M  V30 27 1 27 28
M  V30 28 2 28 29
M  V30 29 1 29 30
M  V30 30 2 30 31
M  V30 31 1 23 32
M  V30 32 1 2 33
M  V30 33 1 33 34
M  V30 34 1 34 35
M  V30 35 1 35 36
M  V30 36 1 36 37
M  V30 37 1 37 38
M  V30 38 1 38 39
M  V30 39 1 39 40
M  V30 40 1 40 41
M  V30 41 1 41 42
M  V30 42 2 42 43
M  V30 43 1 43 44
M  V30 44 2 44 45
M  V30 45 1 45 46
M  V30 46 2 46 47
M  V30 47 1 47 48
M  V30 48 2 48 49
M  V30 49 1 49 50
M  V30 50 2 50 51
M  V30 51 1 51 52
M  V30 52 2 52 53
M  V30 53 1 53 54
M  V30 54 2 54 55
M  V30 55 1 55 56
M  V30 56 2 56 57
M  V30 57 1 57 58
M  V30 58 2 58 59
M  V30 59 1 59 60
M  V30 60 2 60 61
M  V30 61 1 53 62
M  V30 62 1 9 4
M  V30 63 1 32 10
M  V30 64 1 39 34
M  V30 65 1 62 40
M  V30 66 1 21 12
M  V30 67 1 31 22
M  V30 68 1 51 42
M  V30 69 1 61 52
M  V30 70 1 20 15
M  V30 71 1 31 26
M  V30 72 1 50 45
M  V30 73 1 61 56
M  V30 74 1 3 63
M  V30 75 1 4 64 CFG=1
M  V30 76 1 5 65
M  V30 77 1 5 66
M  V30 78 1 6 67
M  V30 79 1 6 68
M  V30 80 1 7 69
M  V30 81 1 7 70
M  V30 82 1 8 71
M  V30 83 1 8 72
M  V30 84 1 9 73 CFG=3
M  V30 85 1 11 74
M  V30 86 1 11 75
M  V30 87 1 13 76
M  V30 88 1 14 77
M  V30 89 1 16 78
M  V30 90 1 17 79
M  V30 91 1 18 80
M  V30 92 1 19 81
M  V30 93 1 24 82
M  V30 94 1 25 83
M  V30 95 1 27 84
M  V30 96 1 28 85
M  V30 97 1 29 86
M  V30 98 1 30 87
M  V30 99 1 32 88
M  V30 100 1 32 89
M  V30 101 1 33 90
M  V30 102 1 34 91 CFG=1
M  V30 103 1 35 92
M  V30 104 1 35 93
M  V30 105 1 36 94
M  V30 106 1 36 95
M  V30 107 1 37 96
M  V30 108 1 37 97
M  V30 109 1 38 98
M  V30 110 1 38 99
M  V30 111 1 39 100 CFG=3
M  V30 112 1 41 101
M  V30 113 1 41 102
M  V30 114 1 43 103
M  V30 115 1 44 104
M  V30 116 1 46 105
M  V30 117 1 47 106
M  V30 118 1 48 107
M  V30 119 1 49 108
M  V30 120 1 54 109
M  V30 121 1 55 110
M  V30 122 1 57 111
M  V30 123 1 58 112
M  V30 124 1 59 113
M  V30 125 1 60 114
M  V30 126 1 62 115
M  V30 127 1 62 116
M  V30 END BOND
M  V30 END CTAB
M  END
>  <catalyst_id>  (1) 
SCSMOJQWTHQJCO_CFOCFGCLSA_R

>  <source_smiles>  (1) 
S=C(N[C@H]1CCCC[C@@H]1N1Cc2ccc3ccccc3c2-c2c(ccc3ccccc23)C1)N[C@H]1CCCC[C@@H]1N1Cc2ccc3ccccc3c2-c2c(ccc3ccccc23)C1

>  <axial_configuration>  (1) 
R

>  <inchikey>  (1) 
SCSMOJQWTHQJCO-CFOCFGCLSA-N

>  <build_source>  (1) 
smiles+axial_bridged

>  <final_biaryl_angle_deg>  (1) 
121.24

>  <n_valid_conformers>  (1) 
14

>  <rdkit_version>  (1) 
2025.09.6

>  <random_seed>  (1) 
42

>  <generated_at>  (1) 
2026-05-19T12:31:34

$$$$
