catalyst423
     RDKit          3D

  0  0  0  0  0  0  0  0  0  0999 V3000
M  V30 BEGIN CTAB
M  V30 COUNTS 72 77 0 0 0
M  V30 BEGIN ATOM
M  V30 1 C -6.143872 -3.306477 0.985348 0
M  V30 2 C -5.134011 -2.426856 1.004257 0
M  V30 3 C -3.814840 -2.671835 1.698484 0 CFG=1
M  V30 4 C -2.609562 -2.524142 0.731688 0
M  V30 5 N -1.617404 -1.527531 1.218395 0
M  V30 6 C -1.124235 -1.971854 2.543217 0
M  V30 7 C -2.263220 -2.130706 3.561726 0
M  V30 8 C -3.595697 -1.726197 2.905637 0 CFG=1
M  V30 9 C -3.422407 -0.269839 2.436609 0
M  V30 10 C -2.325808 -0.203569 1.346436 0 CFG=1
M  V30 11 C -1.337961 1.006687 1.567324 0 CFG=1
M  V30 12 N -0.104650 0.789693 0.790108 0
M  V30 13 C 1.034637 1.416480 1.004491 0
M  V30 14 C 2.316520 1.351924 0.518574 0
M  V30 15 N 2.976967 0.646819 -0.376552 0
M  V30 16 C 4.334719 0.965414 -0.794356 0
M  V30 17 C 4.833210 -0.113297 -1.728279 0
M  V30 18 C 4.804599 0.073632 -3.117876 0
M  V30 19 C 5.252567 -0.929877 -3.992074 0
M  V30 20 C 5.203359 -0.719384 -5.487939 0
M  V30 21 F 4.005836 -1.087652 -6.019332 0
M  V30 22 F 6.148618 -1.434025 -6.158627 0
M  V30 23 F 5.391692 0.579881 -5.849368 0
M  V30 24 C 5.709333 -2.144788 -3.454882 0
M  V30 25 C 5.727073 -2.362691 -2.067512 0
M  V30 26 C 6.237704 -3.666248 -1.498649 0
M  V30 27 F 5.643150 -4.004576 -0.321100 0
M  V30 28 F 7.574803 -3.631547 -1.249213 0
M  V30 29 F 6.038057 -4.724177 -2.332979 0
M  V30 30 C 5.291784 -1.336205 -1.214962 0
M  V30 31 C 2.765053 2.461204 1.398392 0
M  V30 32 O 3.768922 3.092194 1.620654 0
M  V30 33 C 1.395470 2.494232 1.963837 0
M  V30 34 O 0.899205 3.118934 2.869758 0
M  V30 35 C -1.985020 2.347889 1.229755 0
M  V30 36 C -2.262114 3.208602 2.303181 0
M  V30 37 C -2.874079 4.419242 2.055336 0
M  V30 38 N -3.241764 4.831152 0.829382 0
M  V30 39 C -2.974321 4.031673 -0.213451 0
M  V30 40 C -3.348158 4.483267 -1.471903 0
M  V30 41 C -3.113676 3.738056 -2.627123 0
M  V30 42 C -2.485185 2.508089 -2.527564 0
M  V30 43 C -2.101394 2.031727 -1.273532 0
M  V30 44 C -2.339225 2.771310 -0.086126 0
M  V30 45 H -7.070077 -3.076841 0.466516 0
M  V30 46 H -6.077183 -4.268686 1.483729 0
M  V30 47 H -5.263323 -1.479735 0.483327 0
M  V30 48 H -3.808356 -3.703538 2.078782 0
M  V30 49 H -2.110889 -3.496040 0.618935 0
M  V30 50 H -2.930082 -2.250558 -0.282029 0
M  V30 51 H -0.591627 -2.924940 2.432555 0
M  V30 52 H -0.374268 -1.269875 2.925768 0
M  V30 53 H -2.068398 -1.503911 4.440211 0
M  V30 54 H -2.313620 -3.168929 3.910971 0
M  V30 55 H -4.415385 -1.804621 3.628563 0
M  V30 56 H -3.166593 0.354389 3.301315 0
M  V30 57 H -4.365589 0.121607 2.038407 0
M  V30 58 H -2.832192 -0.040089 0.386959 0
M  V30 59 H -1.048189 0.998176 2.627243 0
M  V30 60 H -0.103524 -0.155759 0.391679 0
M  V30 61 H 2.477667 0.026854 -1.013057 0
M  V30 62 H 4.357683 1.939898 -1.297289 0
M  V30 63 H 5.006316 1.029571 0.070840 0
M  V30 64 H 4.432240 1.013517 -3.527813 0
M  V30 65 H 6.052477 -2.933999 -4.126654 0
M  V30 66 H 5.300805 -1.492388 -0.135050 0
M  V30 67 H -1.989617 2.952978 3.323031 0
M  V30 68 H -3.091869 5.112515 2.862701 0
M  V30 69 H -3.836491 5.451934 -1.554641 0
M  V30 70 H -3.418053 4.125565 -3.595401 0
M  V30 71 H -2.287655 1.919044 -3.419270 0
M  V30 72 H -1.598883 1.069232 -1.239516 0
M  V30 END ATOM
M  V30 BEGIN BOND
M  V30 1 2 1 2
M  V30 2 1 2 3
M  V30 3 1 3 4
M  V30 4 1 4 5
M  V30 5 1 5 6
M  V30 6 1 6 7
M  V30 7 1 7 8
M  V30 8 1 8 9
M  V30 9 1 9 10
M  V30 10 1 10 11
M  V30 11 1 11 12
M  V30 12 1 12 13
M  V30 13 2 13 14
M  V30 14 1 14 15
M  V30 15 1 15 16
M  V30 16 1 16 17
M  V30 17 2 17 18
M  V30 18 1 18 19
M  V30 19 1 19 20
M  V30 20 1 20 21
M  V30 21 1 20 22
M  V30 22 1 20 23
M  V30 23 2 19 24
M  V30 24 1 24 25
M  V30 25 1 25 26
M  V30 26 1 26 27
M  V30 27 1 26 28
M  V30 28 1 26 29
M  V30 29 2 25 30
M  V30 30 1 14 31
M  V30 31 2 31 32
M  V30 32 1 31 33
M  V30 33 2 33 34
M  V30 34 1 11 35
M  V30 35 2 35 36
M  V30 36 1 36 37
M  V30 37 2 37 38
M  V30 38 1 38 39
M  V30 39 2 39 40
M  V30 40 1 40 41
M  V30 41 2 41 42
M  V30 42 1 42 43
M  V30 43 2 43 44
M  V30 44 1 8 3
M  V30 45 1 33 13
M  V30 46 1 44 35
M  V30 47 1 10 5
M  V30 48 1 30 17
M  V30 49 1 44 39
M  V30 50 1 1 45
M  V30 51 1 1 46
M  V30 52 1 2 47
M  V30 53 1 3 48 CFG=1
M  V30 54 1 4 49
M  V30 55 1 4 50
M  V30 56 1 6 51
M  V30 57 1 6 52
M  V30 58 1 7 53
M  V30 59 1 7 54
M  V30 60 1 8 55 CFG=1
M  V30 61 1 9 56
M  V30 62 1 9 57
M  V30 63 1 10 58 CFG=3
M  V30 64 1 11 59 CFG=1
M  V30 65 1 12 60
M  V30 66 1 15 61
M  V30 67 1 16 62
M  V30 68 1 16 63
M  V30 69 1 18 64
M  V30 70 1 24 65
M  V30 71 1 30 66
M  V30 72 1 36 67
M  V30 73 1 37 68
M  V30 74 1 40 69
M  V30 75 1 41 70
M  V30 76 1 42 71
M  V30 77 1 43 72
M  V30 END BOND
M  V30 END CTAB
M  END
>  <catalyst_id>  (1) 
YURQYVLOLVWXOA_KBFVSZBXSA_NONE

>  <source_smiles>  (1) 
C=C[C@H]1CN2CC[C@H]1C[C@H]2[C@@H](Nc1c(NCc2cc(C(F)(F)F)cc(C(F)(F)F)c2)c(=O)c1=O)c1ccnc2ccccc12

>  <axial_configuration>  (1) 
none

>  <inchikey>  (1) 
YURQYVLOLVWXOA-KBFVSZBXSA-N

>  <build_source>  (1) 
smiles

>  <rdkit_version>  (1) 
2025.09.6

>  <random_seed>  (1) 
42

>  <generated_at>  (1) 
2026-05-19T12:34:27

$$$$
