catalyst384
     RDKit          3D

  0  0  0  0  0  0  0  0  0  0999 V3000
M  V30 BEGIN CTAB
M  V30 COUNTS 145 155 0 0 0
M  V30 BEGIN ATOM
M  V30 1 C -7.596826 0.060271 -2.855332 0
M  V30 2 C -6.830274 0.108931 -1.757248 0
M  V30 3 C -6.662748 -1.039741 -0.788394 0 CFG=1
M  V30 4 C -5.175397 -1.354229 -0.504570 0
M  V30 5 N -4.930848 -1.445931 1.023144 0 CFG=2 CHG=1
M  V30 6 C -3.472835 -1.913864 1.349840 0
M  V30 7 C -2.579454 -2.358447 0.207371 0
M  V30 8 C -2.568372 -3.726143 -0.139675 0
M  V30 9 C -1.732943 -4.227755 -1.141735 0
M  V30 10 C -1.754288 -5.598402 -1.461534 0
M  V30 11 C -0.900547 -6.125868 -2.429802 0
M  V30 12 C -0.005403 -5.290904 -3.081307 0
M  V30 13 C 0.020004 -3.928915 -2.771064 0
M  V30 14 C -0.853305 -3.353654 -1.810167 0
M  V30 15 C -0.870385 -1.958321 -1.458240 0
M  V30 16 C 0.040887 -1.004943 -2.169668 0
M  V30 17 C -0.408657 -0.293635 -3.302536 0
M  V30 18 O -1.651436 -0.525392 -3.850167 0
M  V30 19 C -1.634894 -1.655719 -4.719230 0
M  V30 20 C 0.331254 0.774736 -3.822048 0
M  V30 21 C -0.295907 1.788180 -4.748110 0
M  V30 22 N -1.224824 2.876288 -4.116914 0 CFG=2 CHG=1
M  V30 23 C -1.714565 3.778174 -5.261180 0
M  V30 24 C -2.546365 4.926790 -4.700429 0
M  V30 25 C -2.914442 4.662322 -3.237073 0 CFG=2
M  V30 26 C -1.612272 4.715863 -2.426764 0
M  V30 27 C -0.555561 3.709771 -2.946167 0 CFG=2
M  V30 28 C 0.814873 4.383710 -3.325702 0 CFG=1
M  V30 29 O 0.748052 5.147953 -4.533705 0
M  V30 30 C 1.489917 5.125796 -2.168140 0
M  V30 31 C 2.168740 4.326130 -1.229809 0
M  V30 32 C 2.830661 4.935401 -0.175431 0
M  V30 33 N 2.874183 6.267924 0.002532 0
M  V30 34 C 2.218232 7.051780 -0.864234 0
M  V30 35 C 2.270589 8.422888 -0.638047 0
M  V30 36 C 1.608200 9.341205 -1.459550 0
M  V30 37 C 0.861130 8.880163 -2.532914 0
M  V30 38 O 0.141471 9.644302 -3.410593 0
M  V30 39 C 0.202851 11.059960 -3.232259 0
M  V30 40 C 0.804078 7.501065 -2.778209 0
M  V30 41 C 1.485942 6.547568 -1.970530 0
M  V30 42 C -3.531127 3.256949 -3.068113 0 CFG=1
M  V30 43 C -4.868658 3.017654 -3.749402 0
M  V30 44 C -5.752931 3.947273 -4.142861 0
M  V30 45 C -2.487557 2.194112 -3.500465 0
M  V30 46 C 1.668832 0.906105 -3.418710 0
M  V30 47 C 2.202463 0.135865 -2.377230 0
M  V30 48 C 3.539048 0.318134 -1.977680 0
M  V30 49 C 4.067961 -0.391019 -0.900915 0
M  V30 50 C 3.266276 -1.284568 -0.206168 0
M  V30 51 C 1.940491 -1.479444 -0.600909 0
M  V30 52 C 1.377199 -0.794580 -1.703708 0
M  V30 53 C -1.769500 -1.413386 -0.468183 0
M  V30 54 O -1.843134 -0.162143 -0.201229 0 CHG=-1
M  V30 55 C -5.888924 -2.505168 1.590840 0
M  V30 56 C -7.337108 -2.082297 1.366762 0
M  V30 57 C -7.403709 -0.796167 0.543031 0 CFG=1
M  V30 58 C -6.709782 0.313690 1.339738 0
M  V30 59 C -5.259067 -0.061182 1.721525 0 CFG=2
M  V30 60 C -4.232100 1.113852 1.491551 0 CFG=1
M  V30 61 O -4.066902 1.434118 0.117439 0
M  V30 62 C -4.542485 2.340315 2.357953 0
M  V30 63 C -4.094898 2.266947 3.690192 0
M  V30 64 C -4.338099 3.317866 4.546604 0
M  V30 65 N -4.998721 4.426682 4.183476 0
M  V30 66 C -5.426456 4.527792 2.919151 0
M  V30 67 C -6.094600 5.694735 2.580885 0
M  V30 68 C -6.599891 5.920465 1.299589 0
M  V30 69 C -6.437651 4.951157 0.322706 0
M  V30 70 O -6.904128 5.015715 -0.960963 0
M  V30 71 C -7.593713 6.203528 -1.332138 0
M  V30 72 C -5.750906 3.774181 0.643513 0
M  V30 73 C -5.233806 3.519858 1.941809 0
M  V30 74 O 1.353236 0.934435 -0.958654 0
M  V30 75 C 0.907860 -0.034073 -0.260297 0
M  V30 76 O 1.566127 -1.055631 0.127323 0 CHG=-1
M  V30 77 C -0.596224 0.029104 0.167718 0
M  V30 78 F -0.724020 -0.032991 1.523392 0
M  V30 79 F -1.298201 -1.015257 -0.355738 0
M  V30 80 F -1.208778 1.174413 -0.243745 0
M  V30 81 H -7.689302 0.926474 -3.505751 0
M  V30 82 H -8.165770 -0.822787 -3.126331 0
M  V30 83 H -6.296713 1.034246 -1.541891 0
M  V30 84 H -7.100644 -1.934204 -1.256244 0
M  V30 85 H -4.500665 -0.621152 -0.940740 0
M  V30 86 H -4.943159 -2.336615 -0.930836 0
M  V30 87 H -2.982972 -1.154285 1.964218 0
M  V30 88 H -3.566654 -2.755612 2.051130 0
M  V30 89 H -3.214490 -4.415604 0.401367 0
M  V30 90 H -2.434411 -6.275019 -0.948357 0
M  V30 91 H -0.923566 -7.187813 -2.661233 0
M  V30 92 H 0.682392 -5.693869 -3.821642 0
M  V30 93 H 0.750135 -3.309250 -3.287480 0
M  V30 94 H -2.212301 -2.467978 -4.267137 0
M  V30 95 H -0.626996 -2.006048 -4.975128 0
M  V30 96 H -2.137022 -1.366468 -5.648768 0
M  V30 97 H -0.887695 1.276494 -5.517914 0
M  V30 98 H 0.488711 2.335124 -5.287881 0
M  V30 99 H -2.323665 3.146055 -5.925773 0
M  V30 100 H -0.859691 4.129307 -5.851381 0
M  V30 101 H -3.437644 5.063888 -5.318835 0
M  V30 102 H -1.986315 5.867397 -4.785279 0
M  V30 103 H -3.593254 5.440942 -2.867535 0
M  V30 104 H -1.821435 4.503305 -1.369012 0
M  V30 105 H -1.240019 5.742016 -2.449674 0
M  V30 106 H -0.364930 2.979962 -2.145339 0
M  V30 107 H 1.510838 3.585697 -3.590374 0
M  V30 108 H 1.570312 5.672086 -4.591537 0
M  V30 109 H 2.192114 3.237282 -1.304797 0
M  V30 110 H 3.361338 4.353679 0.573382 0
M  V30 111 H 2.845243 8.791844 0.213672 0
M  V30 112 H 1.694963 10.396645 -1.222449 0
M  V30 113 H -0.201436 11.357320 -2.259504 0
M  V30 114 H 1.224562 11.425956 -3.366644 0
M  V30 115 H -0.421062 11.522016 -4.008309 0
M  V30 116 H 0.185449 7.189601 -3.619182 0
M  V30 117 H -3.721751 3.099602 -1.997395 0
M  V30 118 H -5.158806 1.970468 -3.877007 0
M  V30 119 H -6.700015 3.650813 -4.591116 0
M  V30 120 H -5.593364 5.011544 -4.002199 0
M  V30 121 H -2.162862 1.629835 -2.623518 0
M  V30 122 H -2.887748 1.518642 -4.264755 0
M  V30 123 H 2.315443 1.633700 -3.906469 0
M  V30 124 H 4.185262 1.021384 -2.498538 0
M  V30 125 H 5.100920 -0.240993 -0.599366 0
M  V30 126 H 3.664991 -1.836674 0.641577 0
M  V30 127 H 1.336055 -2.182469 -0.031140 0
M  V30 128 H -5.680677 -2.612625 2.662569 0
M  V30 129 H -5.670373 -3.454525 1.087394 0
M  V30 130 H -7.882008 -2.890475 0.863932 0
M  V30 131 H -7.834112 -1.940509 2.333756 0
M  V30 132 H -8.451048 -0.526277 0.362400 0
M  V30 133 H -6.751969 1.240514 0.766484 0
M  V30 134 H -7.274930 0.512275 2.259948 0
M  V30 135 H -5.243809 -0.301081 2.794039 0
M  V30 136 H -3.247526 0.800366 1.845187 0
M  V30 137 H -3.233634 0.946364 -0.141923 0
M  V30 138 H -3.540460 1.409709 4.061199 0
M  V30 139 H -3.997319 3.297609 5.577347 0
M  V30 140 H -6.229541 6.457937 3.344905 0
M  V30 141 H -7.120476 6.853376 1.113676 0
M  V30 142 H -7.874027 6.112746 -2.384822 0
M  V30 143 H -6.943469 7.079476 -1.238354 0
M  V30 144 H -8.511314 6.325265 -0.745312 0
M  V30 145 H -5.631326 3.048481 -0.152176 0
M  V30 END ATOM
M  V30 BEGIN BOND
M  V30 1 2 1 2
M  V30 2 1 2 3
M  V30 3 1 3 4
M  V30 4 1 4 5
M  V30 5 1 5 6 CFG=3
M  V30 6 1 6 7
M  V30 7 2 7 8
M  V30 8 1 8 9
M  V30 9 2 9 10
M  V30 10 1 10 11
M  V30 11 2 11 12
M  V30 12 1 12 13
M  V30 13 2 13 14
M  V30 14 1 14 15
M  V30 15 1 15 16
M  V30 16 2 16 17
M  V30 17 1 17 18
M  V30 18 1 18 19
M  V30 19 1 17 20
M  V30 20 1 20 21
M  V30 21 1 22 21 CFG=3
M  V30 22 1 22 23
M  V30 23 1 23 24
M  V30 24 1 24 25
M  V30 25 1 25 26
M  V30 26 1 26 27
M  V30 27 1 27 28
M  V30 28 1 28 29
M  V30 29 1 28 30
M  V30 30 2 30 31
M  V30 31 1 31 32
M  V30 32 2 32 33
M  V30 33 1 33 34
M  V30 34 2 34 35
M  V30 35 1 35 36
M  V30 36 2 36 37
M  V30 37 1 37 38
M  V30 38 1 38 39
M  V30 39 1 37 40
M  V30 40 2 40 41
M  V30 41 1 25 42
M  V30 42 1 42 43
M  V30 43 2 43 44
M  V30 44 1 42 45
M  V30 45 2 20 46
M  V30 46 1 46 47
M  V30 47 2 47 48
M  V30 48 1 48 49
M  V30 49 2 49 50
M  V30 50 1 50 51
M  V30 51 2 51 52
M  V30 52 2 15 53
M  V30 53 1 53 54
M  V30 54 1 5 55
M  V30 55 1 55 56
M  V30 56 1 56 57
M  V30 57 1 57 58
M  V30 58 1 58 59
M  V30 59 1 59 60
M  V30 60 1 60 61
M  V30 61 1 60 62
M  V30 62 2 62 63
M  V30 63 1 63 64
M  V30 64 2 64 65
M  V30 65 1 65 66
M  V30 66 2 66 67
M  V30 67 1 67 68
M  V30 68 2 68 69
M  V30 69 1 69 70
M  V30 70 1 70 71
M  V30 71 1 69 72
M  V30 72 2 72 73
M  V30 73 2 74 75
M  V30 74 1 75 76
M  V30 75 1 75 77
M  V30 76 1 77 78
M  V30 77 1 77 79
M  V30 78 1 77 80
M  V30 79 1 57 3
M  V30 80 1 73 62
M  V30 81 1 59 5
M  V30 82 1 73 66
M  V30 83 1 53 7
M  V30 84 1 14 9
M  V30 85 1 52 16
M  V30 86 1 27 22
M  V30 87 1 41 30
M  V30 88 1 52 47
M  V30 89 1 45 22
M  V30 90 1 41 34
M  V30 91 1 1 81
M  V30 92 1 1 82
M  V30 93 1 2 83
M  V30 94 1 3 84 CFG=3
M  V30 95 1 4 85
M  V30 96 1 4 86
M  V30 97 1 6 87
M  V30 98 1 6 88
M  V30 99 1 8 89
M  V30 100 1 10 90
M  V30 101 1 11 91
M  V30 102 1 12 92
M  V30 103 1 13 93
M  V30 104 1 19 94
M  V30 105 1 19 95
M  V30 106 1 19 96
M  V30 107 1 21 97
M  V30 108 1 21 98
M  V30 109 1 23 99
M  V30 110 1 23 100
M  V30 111 1 24 101
M  V30 112 1 24 102
M  V30 113 1 25 103 CFG=1
M  V30 114 1 26 104
M  V30 115 1 26 105
M  V30 116 1 27 106 CFG=1
M  V30 117 1 28 107 CFG=3
M  V30 118 1 29 108
M  V30 119 1 31 109
M  V30 120 1 32 110
M  V30 121 1 35 111
M  V30 122 1 36 112
M  V30 123 1 39 113
M  V30 124 1 39 114
M  V30 125 1 39 115
M  V30 126 1 40 116
M  V30 127 1 42 117 CFG=1
M  V30 128 1 43 118
M  V30 129 1 44 119
M  V30 130 1 44 120
M  V30 131 1 45 121
M  V30 132 1 45 122
M  V30 133 1 46 123
M  V30 134 1 48 124
M  V30 135 1 49 125
M  V30 136 1 50 126
M  V30 137 1 51 127
M  V30 138 1 55 128
M  V30 139 1 55 129
M  V30 140 1 56 130
M  V30 141 1 56 131
M  V30 142 1 57 132 CFG=3
M  V30 143 1 58 133
M  V30 144 1 58 134
M  V30 145 1 59 135 CFG=1
M  V30 146 1 60 136 CFG=1
M  V30 147 1 61 137
M  V30 148 1 63 138
M  V30 149 1 64 139
M  V30 150 1 67 140
M  V30 151 1 68 141
M  V30 152 1 71 142
M  V30 153 1 71 143
M  V30 154 1 71 144
M  V30 155 1 72 145
M  V30 END BOND
M  V30 END CTAB
M  END
>  <catalyst_id>  (1) 
WSVYPZQWAUTZIF_FDIJCMFKSA_R

>  <source_smiles>  (1) 
C=C[C@H]1C[N+]2(Cc3cc4ccccc4c(-c4c(OC)c(C[N+]56CC[C@H](C[C@@H]5[C@@H](O)c5ccnc7ccc(OC)cc57)[C@@H](C=C)C6)cc5ccccc45)c3[O-])CC[C@H]1C[C@@H]2[C@@H](O)c1ccnc2ccc(OC)cc12.O=C([O-])C(F)(F)F

>  <axial_configuration>  (1) 
R

>  <inchikey>  (1) 
WSVYPZQWAUTZIF-FDIJCMFKSA-M

>  <build_source>  (1) 
smiles+axial_free

>  <final_biaryl_angle_deg>  (1) 
93.48

>  <rdkit_version>  (1) 
2025.09.6

>  <random_seed>  (1) 
42

>  <generated_at>  (1) 
2026-05-19T12:32:22

$$$$
