catalyst65
     RDKit          3D

  0  0  0  0  0  0  0  0  0  0999 V3000
M  V30 BEGIN CTAB
M  V30 COUNTS 69 74 0 0 0
M  V30 BEGIN ATOM
M  V30 1 C -4.091456 4.442847 -0.304145 0
M  V30 2 C -3.340938 3.338816 -0.195707 0
M  V30 3 C -2.725149 2.618493 -1.372111 0 CFG=1
M  V30 4 C -1.185969 2.472804 -1.229654 0
M  V30 5 N -0.748967 1.051513 -1.297640 0
M  V30 6 C -1.155800 0.501250 -2.611742 0
M  V30 7 C -2.669402 0.619885 -2.845883 0
M  V30 8 C -3.334835 1.210736 -1.589679 0 CFG=1
M  V30 9 C -2.973200 0.268181 -0.426390 0
M  V30 10 C -1.447328 0.307487 -0.186904 0 CFG=1
M  V30 11 C -0.830356 -1.124711 0.073870 0 CFG=1
M  V30 12 N 0.634670 -1.023735 -0.100704 0
M  V30 13 C 1.448315 -2.045929 -0.281370 0
M  V30 14 C 2.788612 -2.241255 -0.522447 0
M  V30 15 N 3.913706 -1.572869 -0.683553 0
M  V30 16 C 4.197568 -0.215086 -0.418379 0
M  V30 17 C 3.436712 0.565013 0.458847 0
M  V30 18 C 3.687970 1.934502 0.640593 0
M  V30 19 C 2.831087 2.756152 1.573058 0
M  V30 20 F 2.035213 2.007582 2.387797 0
M  V30 21 F 1.993787 3.593604 0.901368 0
M  V30 22 F 3.569393 3.547944 2.398980 0
M  V30 23 C 4.731239 2.532821 -0.080049 0
M  V30 24 C 5.510997 1.779696 -0.970039 0
M  V30 25 C 6.646801 2.417713 -1.733264 0
M  V30 26 F 6.836347 1.866261 -2.963910 0
M  V30 27 F 6.464902 3.750281 -1.946158 0
M  V30 28 F 7.835122 2.299352 -1.081326 0
M  V30 29 C 5.234674 0.409862 -1.125372 0
M  V30 30 C 2.611138 -3.710727 -0.603532 0
M  V30 31 O 3.286690 -4.688048 -0.809892 0
M  V30 32 C 1.168604 -3.504167 -0.343297 0
M  V30 33 O 0.228535 -4.258942 -0.304481 0
M  V30 34 C -1.161377 -1.609786 1.483133 0
M  V30 35 C -0.512430 -0.996955 2.569435 0
M  V30 36 C -0.832044 -1.384490 3.852731 0
M  V30 37 N -1.748880 -2.324978 4.137941 0
M  V30 38 C -2.375236 -2.929841 3.117267 0
M  V30 39 C -3.314422 -3.900908 3.435529 0
M  V30 40 C -4.023393 -4.595004 2.455940 0
M  V30 41 C -3.787777 -4.317100 1.119744 0
M  V30 42 C -2.850168 -3.343362 0.772447 0
M  V30 43 C -2.125941 -2.622009 1.755849 0
M  V30 44 H -4.313018 4.894911 -1.266001 0
M  V30 45 H -4.505769 4.920885 0.578812 0
M  V30 46 H -3.153538 2.936643 0.798337 0
M  V30 47 H -2.917390 3.208201 -2.280040 0
M  V30 48 H -0.817414 2.920971 -0.297670 0
M  V30 49 H -0.689460 3.035610 -2.031306 0
M  V30 50 H -0.844087 -0.546274 -2.697158 0
M  V30 51 H -0.615768 1.026051 -3.409890 0
M  V30 52 H -2.867442 1.258986 -3.714640 0
M  V30 53 H -3.090771 -0.367601 -3.069120 0
M  V30 54 H -4.421253 1.262045 -1.722735 0
M  V30 55 H -3.313664 -0.743605 -0.673354 0
M  V30 56 H -3.501225 0.562623 0.487740 0
M  V30 57 H -1.268314 0.898189 0.723123 0
M  V30 58 H -1.198545 -1.807557 -0.696209 0
M  V30 59 H 0.862308 -0.116270 -0.527963 0
M  V30 60 H 4.747715 -2.077780 -0.989356 0
M  V30 61 H 2.646133 0.101637 1.044672 0
M  V30 62 H 4.935020 3.596946 0.051734 0
M  V30 63 H 5.831203 -0.170501 -1.829302 0
M  V30 64 H 0.234422 -0.223052 2.417350 0
M  V30 65 H -0.347839 -0.931199 4.712781 0
M  V30 66 H -3.496886 -4.127494 4.483794 0
M  V30 67 H -4.746464 -5.353658 2.742198 0
M  V30 68 H -4.320982 -4.861999 0.344977 0
M  V30 69 H -2.683987 -3.179602 -0.287669 0
M  V30 END ATOM
M  V30 BEGIN BOND
M  V30 1 2 1 2
M  V30 2 1 2 3
M  V30 3 1 3 4
M  V30 4 1 4 5
M  V30 5 1 5 6
M  V30 6 1 6 7
M  V30 7 1 7 8
M  V30 8 1 8 9
M  V30 9 1 9 10
M  V30 10 1 10 11
M  V30 11 1 11 12
M  V30 12 1 12 13
M  V30 13 2 13 14
M  V30 14 1 14 15
M  V30 15 1 15 16
M  V30 16 2 16 17
M  V30 17 1 17 18
M  V30 18 1 18 19
M  V30 19 1 19 20
M  V30 20 1 19 21
M  V30 21 1 19 22
M  V30 22 2 18 23
M  V30 23 1 23 24
M  V30 24 1 24 25
M  V30 25 1 25 26
M  V30 26 1 25 27
M  V30 27 1 25 28
M  V30 28 2 24 29
M  V30 29 1 14 30
M  V30 30 2 30 31
M  V30 31 1 30 32
M  V30 32 2 32 33
M  V30 33 1 11 34
M  V30 34 2 34 35
M  V30 35 1 35 36
M  V30 36 2 36 37
M  V30 37 1 37 38
M  V30 38 2 38 39
M  V30 39 1 39 40
M  V30 40 2 40 41
M  V30 41 1 41 42
M  V30 42 2 42 43
M  V30 43 1 8 3
M  V30 44 1 32 13
M  V30 45 1 43 34
M  V30 46 1 10 5
M  V30 47 1 29 16
M  V30 48 1 43 38
M  V30 49 1 1 44
M  V30 50 1 1 45
M  V30 51 1 2 46
M  V30 52 1 3 47 CFG=3
M  V30 53 1 4 48
M  V30 54 1 4 49
M  V30 55 1 6 50
M  V30 56 1 6 51
M  V30 57 1 7 52
M  V30 58 1 7 53
M  V30 59 1 8 54 CFG=3
M  V30 60 1 9 55
M  V30 61 1 9 56
M  V30 62 1 10 57 CFG=1
M  V30 63 1 11 58 CFG=3
M  V30 64 1 12 59
M  V30 65 1 15 60
M  V30 66 1 17 61
M  V30 67 1 23 62
M  V30 68 1 29 63
M  V30 69 1 35 64
M  V30 70 1 36 65
M  V30 71 1 39 66
M  V30 72 1 40 67
M  V30 73 1 41 68
M  V30 74 1 42 69
M  V30 END BOND
M  V30 END CTAB
M  END
>  <catalyst_id>  (1) 
FWJUZWUOETZTNW_SEMUBUJISA_NONE

>  <source_smiles>  (1) 
C=C[C@H]1CN2CC[C@H]1C[C@H]2[C@@H](Nc1c(Nc2cc(C(F)(F)F)cc(C(F)(F)F)c2)c(=O)c1=O)c1ccnc2ccccc12

>  <axial_configuration>  (1) 
none

>  <inchikey>  (1) 
FWJUZWUOETZTNW-SEMUBUJISA-N

>  <build_source>  (1) 
smiles

>  <rdkit_version>  (1) 
2025.09.6

>  <random_seed>  (1) 
42

>  <generated_at>  (1) 
2026-05-19T12:34:21

$$$$
