catalyst415
     RDKit          3D

  0  0  0  0  0  0  0  0  0  0999 V3000
M  V30 BEGIN CTAB
M  V30 COUNTS 96 103 0 0 0
M  V30 BEGIN ATOM
M  V30 1 C 2.993357 2.643795 4.544064 0
M  V30 2 C 3.097635 2.375733 3.235913 0
M  V30 3 C 4.259942 1.638568 2.614861 0 CFG=1
M  V30 4 C 3.800108 0.368886 1.854355 0
M  V30 5 N 4.508490 0.185269 0.554715 0
M  V30 6 C 5.966905 0.288823 0.840239 0
M  V30 7 C 6.350326 1.714546 1.283969 0
M  V30 8 C 5.069612 2.504688 1.622617 0 CFG=1
M  V30 9 C 4.259890 2.662265 0.318631 0
M  V30 10 C 4.176736 1.295676 -0.409890 0 CFG=2
M  V30 11 C 2.861578 1.149343 -1.280516 0 CFG=2
M  V30 12 N 1.721547 0.639274 -0.509485 0
M  V30 13 C 0.574623 1.291762 -0.109971 0
M  V30 14 S 0.253057 2.902451 -0.391710 0
M  V30 15 N -0.264207 0.434062 0.544181 0
M  V30 16 P -1.834834 0.660531 1.080031 0
M  V30 17 O -2.110171 1.912582 1.848726 0
M  V30 18 N -2.820227 0.340415 -0.204682 0
M  V30 19 C -3.413727 1.482487 -0.894051 0
M  V30 20 C -3.525249 1.282481 -2.390996 0
M  V30 21 C -2.441499 0.791089 -3.136681 0
M  V30 22 C -2.542896 0.629060 -4.518952 0
M  V30 23 C -3.722480 0.971225 -5.175774 0
M  V30 24 C -4.799428 1.479378 -4.451669 0
M  V30 25 C -4.700479 1.639673 -3.067890 0
M  V30 26 C -3.791238 -0.684868 0.208687 0 CFG=1
M  V30 27 C -4.480911 -1.474253 -0.905557 0
M  V30 28 C -5.335770 -2.601474 -0.322400 0
M  V30 29 C -4.536170 -3.516604 0.601917 0
M  V30 30 C -3.806685 -2.736752 1.699336 0
M  V30 31 C -2.932623 -1.638087 1.087145 0 CFG=2
M  V30 32 N -2.101844 -0.749997 1.935022 0
M  V30 33 C -2.558039 -0.560754 3.312743 0
M  V30 34 C -2.236653 -1.717146 4.236832 0
M  V30 35 C -0.962281 -2.305464 4.244174 0
M  V30 36 C -0.666654 -3.351301 5.119982 0
M  V30 37 C -1.636213 -3.812620 6.007732 0
M  V30 38 C -2.899359 -3.224769 6.025357 0
M  V30 39 C -3.196585 -2.178385 5.150190 0
M  V30 40 C 3.021060 0.249365 -2.514737 0
M  V30 41 C 3.725666 -0.958650 -2.401752 0
M  V30 42 C 3.852704 -1.774222 -3.507359 0
M  V30 43 N 3.322365 -1.490947 -4.709096 0
M  V30 44 C 2.618706 -0.357068 -4.836380 0
M  V30 45 C 2.060877 -0.095251 -6.080587 0
M  V30 46 C 1.297490 1.045225 -6.325397 0
M  V30 47 C 1.081404 1.950246 -5.300335 0
M  V30 48 C 1.635292 1.711605 -4.041495 0
M  V30 49 C 2.420431 0.560695 -3.773749 0
M  V30 50 H 2.128265 3.175397 4.930712 0
M  V30 51 H 3.757173 2.347287 5.255684 0
M  V30 52 H 2.291844 2.701589 2.579477 0
M  V30 53 H 4.940260 1.325083 3.420121 0
M  V30 54 H 4.001158 -0.509933 2.482355 0
M  V30 55 H 2.716753 0.355391 1.716385 0
M  V30 56 H 6.543339 0.006222 -0.049376 0
M  V30 57 H 6.246565 -0.438834 1.612861 0
M  V30 58 H 7.012011 1.665367 2.156580 0
M  V30 59 H 6.902621 2.224242 0.485176 0
M  V30 60 H 5.317648 3.483391 2.047630 0
M  V30 61 H 3.268934 3.067806 0.535490 0
M  V30 62 H 4.759268 3.386890 -0.336852 0
M  V30 63 H 4.985528 1.315522 -1.157907 0
M  V30 64 H 2.647944 2.160733 -1.630147 0
M  V30 65 H 1.842257 -0.321883 -0.226653 0
M  V30 66 H 0.014220 -0.525988 0.628896 0
M  V30 67 H -4.386741 1.736421 -0.454971 0
M  V30 68 H -2.792754 2.374688 -0.759171 0
M  V30 69 H -1.509203 0.528455 -2.641039 0
M  V30 70 H -1.698005 0.238147 -5.080016 0
M  V30 71 H -3.800255 0.846614 -6.252331 0
M  V30 72 H -5.716875 1.754201 -4.965352 0
M  V30 73 H -5.549000 2.043752 -2.520756 0
M  V30 74 H -4.558085 -0.218544 0.844893 0
M  V30 75 H -5.132204 -0.823032 -1.496188 0
M  V30 76 H -3.735763 -1.898867 -1.589830 0
M  V30 77 H -5.769890 -3.191523 -1.137516 0
M  V30 78 H -6.173885 -2.167018 0.236683 0
M  V30 79 H -5.206050 -4.253535 1.059358 0
M  V30 80 H -3.803777 -4.078361 0.008821 0
M  V30 81 H -3.193150 -3.440642 2.271274 0
M  V30 82 H -4.552609 -2.308598 2.378675 0
M  V30 83 H -2.213115 -2.146872 0.427054 0
M  V30 84 H -2.038829 0.298553 3.756313 0
M  V30 85 H -3.626046 -0.312175 3.334115 0
M  V30 86 H -0.192553 -1.948050 3.564366 0
M  V30 87 H 0.321992 -3.802383 5.112527 0
M  V30 88 H -1.405117 -4.625471 6.691046 0
M  V30 89 H -3.652645 -3.578217 6.724659 0
M  V30 90 H -4.185224 -1.726192 5.184751 0
M  V30 91 H 4.174546 -1.278864 -1.468205 0
M  V30 92 H 4.400276 -2.710693 -3.451548 0
M  V30 93 H 2.224497 -0.807503 -6.886487 0
M  V30 94 H 0.873695 1.217121 -7.310798 0
M  V30 95 H 0.479412 2.839908 -5.469475 0
M  V30 96 H 1.427993 2.447813 -3.271592 0
M  V30 END ATOM
M  V30 BEGIN BOND
M  V30 1 2 1 2
M  V30 2 1 2 3
M  V30 3 1 3 4
M  V30 4 1 4 5
M  V30 5 1 5 6
M  V30 6 1 6 7
M  V30 7 1 7 8
M  V30 8 1 8 9
M  V30 9 1 9 10
M  V30 10 1 10 11
M  V30 11 1 11 12
M  V30 12 1 12 13
M  V30 13 2 13 14
M  V30 14 1 13 15
M  V30 15 1 15 16
M  V30 16 2 16 17
M  V30 17 1 16 18
M  V30 18 1 18 19
M  V30 19 1 19 20
M  V30 20 2 20 21
M  V30 21 1 21 22
M  V30 22 2 22 23
M  V30 23 1 23 24
M  V30 24 2 24 25
M  V30 25 1 18 26
M  V30 26 1 26 27
M  V30 27 1 27 28
M  V30 28 1 28 29
M  V30 29 1 29 30
M  V30 30 1 30 31
M  V30 31 1 31 32
M  V30 32 1 32 33
M  V30 33 1 33 34
M  V30 34 2 34 35
M  V30 35 1 35 36
M  V30 36 2 36 37
M  V30 37 1 37 38
M  V30 38 2 38 39
M  V30 39 1 11 40
M  V30 40 2 40 41
M  V30 41 1 41 42
M  V30 42 2 42 43
M  V30 43 1 43 44
M  V30 44 2 44 45
M  V30 45 1 45 46
M  V30 46 2 46 47
M  V30 47 1 47 48
M  V30 48 2 48 49
M  V30 49 1 8 3
M  V30 50 1 32 16
M  V30 51 1 39 34
M  V30 52 1 49 40
M  V30 53 1 10 5
M  V30 54 1 25 20
M  V30 55 1 31 26
M  V30 56 1 49 44
M  V30 57 1 1 50
M  V30 58 1 1 51
M  V30 59 1 2 52
M  V30 60 1 3 53 CFG=1
M  V30 61 1 4 54
M  V30 62 1 4 55
M  V30 63 1 6 56
M  V30 64 1 6 57
M  V30 65 1 7 58
M  V30 66 1 7 59
M  V30 67 1 8 60 CFG=1
M  V30 68 1 9 61
M  V30 69 1 9 62
M  V30 70 1 10 63 CFG=3
M  V30 71 1 11 64 CFG=3
M  V30 72 1 12 65
M  V30 73 1 15 66
M  V30 74 1 19 67
M  V30 75 1 19 68
M  V30 76 1 21 69
M  V30 77 1 22 70
M  V30 78 1 23 71
M  V30 79 1 24 72
M  V30 80 1 25 73
M  V30 81 1 26 74 CFG=1
M  V30 82 1 27 75
M  V30 83 1 27 76
M  V30 84 1 28 77
M  V30 85 1 28 78
M  V30 86 1 29 79
M  V30 87 1 29 80
M  V30 88 1 30 81
M  V30 89 1 30 82
M  V30 90 1 31 83 CFG=3
M  V30 91 1 33 84
M  V30 92 1 33 85
M  V30 93 1 35 86
M  V30 94 1 36 87
M  V30 95 1 37 88
M  V30 96 1 38 89
M  V30 97 1 39 90
M  V30 98 1 41 91
M  V30 99 1 42 92
M  V30 100 1 45 93
M  V30 101 1 46 94
M  V30 102 1 47 95
M  V30 103 1 48 96
M  V30 END BOND
M  V30 END CTAB
M  END
>  <catalyst_id>  (1) 
YLBHSIUKGJMLJZ_COJQXQMZSA_NONE

>  <source_smiles>  (1) 
C=C[C@H]1CN2CC[C@H]1C[C@@H]2[C@H](NC(=S)NP1(=O)N(Cc2ccccc2)[C@H]2CCCC[C@@H]2N1Cc1ccccc1)c1ccnc2ccccc12

>  <axial_configuration>  (1) 
none

>  <inchikey>  (1) 
YLBHSIUKGJMLJZ-COJQXQMZSA-N

>  <build_source>  (1) 
smiles

>  <rdkit_version>  (1) 
2025.09.6

>  <random_seed>  (1) 
42

>  <generated_at>  (1) 
2026-05-19T12:40:22

$$$$
