catalyst427
     RDKit          3D

  0  0  0  0  0  0  0  0  0  0999 V3000
M  V30 BEGIN CTAB
M  V30 COUNTS 162 169 0 0 0
M  V30 BEGIN ATOM
M  V30 1 C -3.341133 -3.471268 3.264192 0
M  V30 2 C -3.640297 -2.517888 2.116011 0
M  V30 3 C -5.032024 -2.788294 1.520780 0
M  V30 4 N -5.420064 -1.982771 0.334825 0
M  V30 5 C -4.587781 -2.308724 -0.848322 0
M  V30 6 C -4.500886 -3.788439 -1.176959 0
M  V30 7 C -3.275910 -4.465744 -1.062743 0
M  V30 8 C -3.196179 -5.843259 -1.272380 0
M  V30 9 C -4.357059 -6.550840 -1.599159 0
M  V30 10 C -5.589911 -5.891742 -1.746964 0
M  V30 11 C -6.823710 -6.666907 -2.137474 0
M  V30 12 F -7.985366 -6.063512 -1.763793 0
M  V30 13 F -6.910510 -6.848495 -3.483796 0
M  V30 14 F -6.858980 -7.913907 -1.589852 0
M  V30 15 C -5.648269 -4.506100 -1.542450 0
M  V30 16 N -2.013663 -6.584394 -1.077505 0
M  V30 17 C -0.710052 -6.161452 -0.958759 0
M  V30 18 S 0.335530 -7.176817 -0.136545 0
M  V30 19 N -0.400897 -5.011555 -1.652159 0
M  V30 20 C 0.797206 -4.266499 -1.653638 0
M  V30 21 C 1.571703 -4.064583 -0.508732 0
M  V30 22 C 2.770653 -3.330582 -0.559040 0
M  V30 23 C 3.195310 -2.831573 -1.797766 0
M  V30 24 C 2.402227 -2.970512 -2.946350 0
M  V30 25 C 2.838513 -2.347893 -4.248112 0
M  V30 26 F 4.186278 -2.381151 -4.435819 0
M  V30 27 F 2.482777 -1.035137 -4.328081 0
M  V30 28 F 2.292826 -2.948851 -5.341874 0
M  V30 29 C 1.187623 -3.667693 -2.854597 0
M  V30 30 C 3.589805 -3.185146 0.714139 0
M  V30 31 N 4.641506 -2.147872 0.679059 0
M  V30 32 C 5.730134 -2.459905 1.612389 0
M  V30 33 C 6.670460 -3.568142 1.106423 0
M  V30 34 C 7.320385 -3.248970 -0.232077 0
M  V30 35 C 4.107831 -0.740401 0.755701 0 CFG=1
M  V30 36 C 3.330806 -0.402660 2.030790 0
M  V30 37 C 1.946831 -0.146007 1.943848 0
M  V30 38 C 1.188600 0.151217 3.078522 0
M  V30 39 C 1.795648 0.185418 4.328920 0
M  V30 40 C 3.155822 -0.084633 4.442756 0
M  V30 41 C 3.913168 -0.381510 3.305461 0
M  V30 42 C 5.128905 0.354783 0.139585 0 CFG=2
M  V30 43 C 6.285314 0.900820 0.994689 0
M  V30 44 C 7.609950 0.695658 0.556204 0
M  V30 45 C 8.702267 1.194014 1.270166 0
M  V30 46 C 8.495277 1.927198 2.432680 0
M  V30 47 C 7.197514 2.168707 2.871141 0
M  V30 48 C 6.105478 1.668647 2.153664 0
M  V30 49 N 4.563482 1.465873 -0.689186 0
M  V30 50 C 4.135692 1.054657 -2.039302 0
M  V30 51 C 5.285147 0.717773 -3.001954 0
M  V30 52 C 6.263435 1.868635 -3.189840 0
M  V30 53 C 3.534384 2.272205 -0.024811 0
M  V30 54 C 3.490390 3.690319 -0.572634 0
M  V30 55 C 2.268003 4.269132 -0.941360 0
M  V30 56 C 2.218667 5.547987 -1.506287 0
M  V30 57 C 3.408622 6.248578 -1.718656 0
M  V30 58 C 4.641272 5.712585 -1.310278 0
M  V30 59 C 5.925799 6.470006 -1.534998 0
M  V30 60 F 5.733981 7.813379 -1.670567 0
M  V30 61 F 6.817618 6.327392 -0.516169 0
M  V30 62 F 6.573552 6.072383 -2.664193 0
M  V30 63 C 4.668365 4.435272 -0.732268 0
M  V30 64 N 1.018326 6.139599 -1.954587 0
M  V30 65 C -0.279017 5.793177 -1.651165 0
M  V30 66 S -1.464286 6.168307 -2.768848 0
M  V30 67 N -0.455405 5.288653 -0.384440 0
M  V30 68 C -1.505470 4.532681 0.166714 0
M  V30 69 C -2.309162 3.679332 -0.590734 0
M  V30 70 C -3.278573 2.871065 0.022928 0
M  V30 71 C -3.434682 2.937722 1.414631 0
M  V30 72 C -2.629418 3.778538 2.193987 0
M  V30 73 C -2.818986 3.835377 3.688298 0
M  V30 74 F -3.899437 4.577174 4.052551 0
M  V30 75 F -3.002065 2.603770 4.242165 0
M  V30 76 F -1.753868 4.377008 4.344214 0
M  V30 77 C -1.658101 4.564469 1.557177 0
M  V30 78 C -4.043652 1.852906 -0.796800 0
M  V30 79 N -5.497988 1.809033 -0.471933 0
M  V30 80 C -6.173825 2.788012 -1.356063 0
M  V30 81 C -7.351711 3.546493 -0.734104 0
M  V30 82 C -7.014602 4.200794 0.597958 0
M  V30 83 C -5.983609 0.392668 -0.597089 0 CFG=2
M  V30 84 C -7.514372 0.164143 -0.702280 0
M  V30 85 C -8.292549 0.372458 0.596171 0
M  V30 86 C -7.702857 -0.413262 1.755327 0
M  V30 87 C -6.215451 -0.116712 1.887695 0
M  V30 88 C -5.425123 -0.504101 0.607514 0 CFG=1
M  V30 89 H -3.350531 -4.511216 2.922269 0
M  V30 90 H -2.352008 -3.260857 3.682905 0
M  V30 91 H -4.079289 -3.364458 4.065296 0
M  V30 92 H -3.571841 -1.492618 2.494071 0
M  V30 93 H -2.859979 -2.633697 1.357986 0
M  V30 94 H -5.116293 -3.855671 1.284320 0
M  V30 95 H -5.788410 -2.665903 2.304454 0
M  V30 96 H -5.011150 -1.853624 -1.749007 0
M  V30 97 H -3.578910 -1.890507 -0.739316 0
M  V30 98 H -2.406534 -3.906451 -0.727958 0
M  V30 99 H -4.313393 -7.628737 -1.751739 0
M  V30 100 H -6.601198 -3.981862 -1.626366 0
M  V30 101 H -2.138634 -7.564787 -0.842423 0
M  V30 102 H -0.982911 -4.903178 -2.475477 0
M  V30 103 H 1.244961 -4.461716 0.449556 0
M  V30 104 H 4.151434 -2.313443 -1.871375 0
M  V30 105 H 0.575941 -3.783782 -3.747920 0
M  V30 106 H 2.921468 -3.029144 1.569667 0
M  V30 107 H 4.039598 -4.173818 0.862330 0
M  V30 108 H 6.358260 -1.586142 1.792835 0
M  V30 109 H 5.330952 -2.760601 2.588845 0
M  V30 110 H 6.146143 -4.526389 1.031790 0
M  V30 111 H 7.462318 -3.712546 1.851950 0
M  V30 112 H 6.576363 -3.147260 -1.027807 0
M  V30 113 H 7.897456 -2.322069 -0.175815 0
M  V30 114 H 8.005920 -4.053401 -0.517162 0
M  V30 115 H 3.330603 -0.748010 -0.016898 0
M  V30 116 H 1.439762 -0.183459 0.981168 0
M  V30 117 H 0.123362 0.347827 2.986425 0
M  V30 118 H 1.208737 0.413338 5.214833 0
M  V30 119 H 3.632351 -0.067693 5.419905 0
M  V30 120 H 4.971874 -0.585811 3.439288 0
M  V30 121 H 5.663189 -0.262538 -0.593136 0
M  V30 122 H 7.802879 0.145931 -0.363353 0
M  V30 123 H 9.712056 1.017324 0.909414 0
M  V30 124 H 9.342117 2.322300 2.987073 0
M  V30 125 H 7.029713 2.757747 3.769325 0
M  V30 126 H 5.113821 1.904039 2.524862 0
M  V30 127 H 3.571104 1.864892 -2.518575 0
M  V30 128 H 3.441343 0.209508 -1.988916 0
M  V30 129 H 5.828605 -0.176018 -2.679388 0
M  V30 130 H 4.850728 0.470082 -3.978469 0
M  V30 131 H 5.746965 2.769781 -3.535394 0
M  V30 132 H 7.016198 1.602856 -3.938588 0
M  V30 133 H 6.787744 2.106491 -2.259695 0
M  V30 134 H 3.708241 2.379471 1.047203 0
M  V30 135 H 2.552804 1.795473 -0.132623 0
M  V30 136 H 1.366072 3.670972 -0.845471 0
M  V30 137 H 3.386212 7.232788 -2.184306 0
M  V30 138 H 5.622769 3.994390 -0.437182 0
M  V30 139 H 1.102719 6.804006 -2.717682 0
M  V30 140 H 0.217834 5.658930 0.277674 0
M  V30 141 H -2.153944 3.583674 -1.661672 0
M  V30 142 H -4.183832 2.314167 1.900479 0
M  V30 143 H -1.026304 5.215505 2.159663 0
M  V30 144 H -3.538306 0.898174 -0.613716 0
M  V30 145 H -3.896404 2.023944 -1.872892 0
M  V30 146 H -6.474899 2.322299 -2.302997 0
M  V30 147 H -5.465258 3.577546 -1.646553 0
M  V30 148 H -8.227614 2.905458 -0.624902 0
M  V30 149 H -7.653874 4.334958 -1.435315 0
M  V30 150 H -6.787378 3.454905 1.365502 0
M  V30 151 H -6.154047 4.870360 0.499977 0
M  V30 152 H -7.864680 4.793076 0.951168 0
M  V30 153 H -5.576855 0.041386 -1.551027 0
M  V30 154 H -7.952377 0.775448 -1.497722 0
M  V30 155 H -7.677780 -0.872832 -1.027283 0
M  V30 156 H -8.305219 1.429200 0.873136 0
M  V30 157 H -9.337548 0.077203 0.447008 0
M  V30 158 H -7.873197 -1.485325 1.606029 0
M  V30 159 H -8.218084 -0.137615 2.682702 0
M  V30 160 H -6.086321 0.954533 2.085370 0
M  V30 161 H -5.816114 -0.609831 2.779167 0
M  V30 162 H -4.385686 -0.227084 0.806694 0
M  V30 END ATOM
M  V30 BEGIN BOND
M  V30 1 1 1 2
M  V30 2 1 2 3
M  V30 3 1 3 4
M  V30 4 1 4 5
M  V30 5 1 5 6
M  V30 6 1 6 7
M  V30 7 2 7 8
M  V30 8 1 8 9
M  V30 9 2 9 10
M  V30 10 1 10 11
M  V30 11 1 11 12
M  V30 12 1 11 13
M  V30 13 1 11 14
M  V30 14 1 10 15
M  V30 15 1 8 16
M  V30 16 1 16 17
M  V30 17 2 17 18
M  V30 18 1 17 19
M  V30 19 1 19 20
M  V30 20 1 20 21
M  V30 21 2 21 22
M  V30 22 1 22 23
M  V30 23 2 23 24
M  V30 24 1 24 25
M  V30 25 1 25 26
M  V30 26 1 25 27
M  V30 27 1 25 28
M  V30 28 1 24 29
M  V30 29 1 22 30
M  V30 30 1 30 31
M  V30 31 1 31 32
M  V30 32 1 32 33
M  V30 33 1 33 34
M  V30 34 1 31 35
M  V30 35 1 35 36
M  V30 36 2 36 37
M  V30 37 1 37 38
M  V30 38 2 38 39
M  V30 39 1 39 40
M  V30 40 2 40 41
M  V30 41 1 35 42
M  V30 42 1 42 43
M  V30 43 2 43 44
M  V30 44 1 44 45
M  V30 45 2 45 46
M  V30 46 1 46 47
M  V30 47 2 47 48
M  V30 48 1 42 49
M  V30 49 1 49 50
M  V30 50 1 50 51
M  V30 51 1 51 52
M  V30 52 1 49 53
M  V30 53 1 53 54
M  V30 54 1 54 55
M  V30 55 2 55 56
M  V30 56 1 56 57
M  V30 57 2 57 58
M  V30 58 1 58 59
M  V30 59 1 59 60
M  V30 60 1 59 61
M  V30 61 1 59 62
M  V30 62 1 58 63
M  V30 63 1 56 64
M  V30 64 1 64 65
M  V30 65 2 65 66
M  V30 66 1 65 67
M  V30 67 1 67 68
M  V30 68 1 68 69
M  V30 69 2 69 70
M  V30 70 1 70 71
M  V30 71 2 71 72
M  V30 72 1 72 73
M  V30 73 1 73 74
M  V30 74 1 73 75
M  V30 75 1 73 76
M  V30 76 1 72 77
M  V30 77 1 70 78
M  V30 78 1 78 79
M  V30 79 1 79 80
M  V30 80 1 80 81
M  V30 81 1 81 82
M  V30 82 1 79 83
M  V30 83 1 83 84
M  V30 84 1 84 85
M  V30 85 1 85 86
M  V30 86 1 86 87
M  V30 87 1 87 88
M  V30 88 1 88 4
M  V30 89 2 15 6
M  V30 90 2 29 20
M  V30 91 1 41 36
M  V30 92 1 48 43
M  V30 93 2 63 54
M  V30 94 2 77 68
M  V30 95 1 88 83
M  V30 96 1 1 89
M  V30 97 1 1 90
M  V30 98 1 1 91
M  V30 99 1 2 92
M  V30 100 1 2 93
M  V30 101 1 3 94
M  V30 102 1 3 95
M  V30 103 1 5 96
M  V30 104 1 5 97
M  V30 105 1 7 98
M  V30 106 1 9 99
M  V30 107 1 15 100
M  V30 108 1 16 101
M  V30 109 1 19 102
M  V30 110 1 21 103
M  V30 111 1 23 104
M  V30 112 1 29 105
M  V30 113 1 30 106
M  V30 114 1 30 107
M  V30 115 1 32 108
M  V30 116 1 32 109
M  V30 117 1 33 110
M  V30 118 1 33 111
M  V30 119 1 34 112
M  V30 120 1 34 113
M  V30 121 1 34 114
M  V30 122 1 35 115 CFG=3
M  V30 123 1 37 116
M  V30 124 1 38 117
M  V30 125 1 39 118
M  V30 126 1 40 119
M  V30 127 1 41 120
M  V30 128 1 42 121 CFG=3
M  V30 129 1 44 122
M  V30 130 1 45 123
M  V30 131 1 46 124
M  V30 132 1 47 125
M  V30 133 1 48 126
M  V30 134 1 50 127
M  V30 135 1 50 128
M  V30 136 1 51 129
M  V30 137 1 51 130
M  V30 138 1 52 131
M  V30 139 1 52 132
M  V30 140 1 52 133
M  V30 141 1 53 134
M  V30 142 1 53 135
M  V30 143 1 55 136
M  V30 144 1 57 137
M  V30 145 1 63 138
M  V30 146 1 64 139
M  V30 147 1 67 140
M  V30 148 1 69 141
M  V30 149 1 71 142
M  V30 150 1 77 143
M  V30 151 1 78 144
M  V30 152 1 78 145
M  V30 153 1 80 146
M  V30 154 1 80 147
M  V30 155 1 81 148
M  V30 156 1 81 149
M  V30 157 1 82 150
M  V30 158 1 82 151
M  V30 159 1 82 152
M  V30 160 1 83 153 CFG=3
M  V30 161 1 84 154
M  V30 162 1 84 155
M  V30 163 1 85 156
M  V30 164 1 85 157
M  V30 165 1 86 158
M  V30 166 1 86 159
M  V30 167 1 87 160
M  V30 168 1 87 161
M  V30 169 1 88 162 CFG=1
M  V30 END BOND
M  V30 END CTAB
M  END
>  <catalyst_id>  (1) 
ZGMYUGIWAQBXGR_GFNONAECSA_NONE

>  <source_smiles>  (1) 
CCCN1Cc2cc(cc(C(F)(F)F)c2)NC(=S)Nc2cc(cc(C(F)(F)F)c2)CN(CCC)[C@@H](c2ccccc2)[C@H](c2ccccc2)N(CCC)Cc2cc(cc(C(F)(F)F)c2)NC(=S)Nc2cc(cc(C(F)(F)F)c2)CN(CCC)[C@@H]2CCCC[C@H]21

>  <axial_configuration>  (1) 
none

>  <inchikey>  (1) 
ZGMYUGIWAQBXGR-GFNONAECSA-N

>  <build_source>  (1) 
smiles

>  <rdkit_version>  (1) 
2025.09.6

>  <random_seed>  (1) 
42

>  <generated_at>  (1) 
2026-05-19T12:38:15

$$$$
