catalyst175
     RDKit          3D

  0  0  0  0  0  0  0  0  0  0999 V3000
M  V30 BEGIN CTAB
M  V30 COUNTS 62 64 0 0 0
M  V30 BEGIN ATOM
M  V30 1 C 1.064692 -5.321341 -1.592390 0
M  V30 2 C 0.247651 -4.054854 -1.813671 0
M  V30 3 C 0.655722 -2.889118 -0.887331 0 CFG=2
M  V30 4 C 0.400520 -3.230358 0.585129 0
M  V30 5 C 0.028433 -1.539749 -1.361261 0 CFG=1
M  V30 6 C -1.508102 -1.473494 -1.539001 0
M  V30 7 P -2.582448 -1.551023 -0.036419 0
M  V30 8 C -4.269605 -1.241659 -0.678619 0
M  V30 9 C -4.651676 -1.564221 -1.988931 0
M  V30 10 C -5.956158 -1.332356 -2.439425 0
M  V30 11 C -6.906895 -0.786522 -1.582653 0
M  V30 12 C -6.556764 -0.480502 -0.272102 0
M  V30 13 C -5.253278 -0.713283 0.176407 0
M  V30 14 C -2.226347 0.022259 0.813797 0
M  V30 15 C -2.313587 1.269601 0.179299 0
M  V30 16 C -1.977425 2.442687 0.860058 0
M  V30 17 C -1.554019 2.384902 2.185515 0
M  V30 18 C -1.471582 1.155050 2.833432 0
M  V30 19 C -1.808059 -0.018153 2.153375 0
M  V30 20 N 0.528700 -0.404521 -0.589952 0
M  V30 21 C 1.767879 0.160017 -0.800982 0
M  V30 22 O 2.531517 -0.226100 -1.674151 0
M  V30 23 N 1.966640 1.200397 0.081718 0
M  V30 24 C 3.121516 1.987779 0.240822 0
M  V30 25 C 3.036882 3.082843 1.109031 0
M  V30 26 C 4.143575 3.912953 1.330597 0
M  V30 27 C 5.351605 3.653651 0.686793 0
M  V30 28 O 6.504000 4.378044 0.811994 0
M  V30 29 C 6.462070 5.511418 1.669110 0
M  V30 30 C 5.438163 2.558886 -0.174410 0
M  V30 31 C 4.333174 1.729009 -0.396689 0
M  V30 32 H 0.795072 -6.075725 -2.338662 0
M  V30 33 H 2.136297 -5.120007 -1.687312 0
M  V30 34 H 0.877726 -5.753190 -0.604980 0
M  V30 35 H 0.375544 -3.747761 -2.858878 0
M  V30 36 H -0.812619 -4.297354 -1.678247 0
M  V30 37 H 1.744746 -2.770456 -0.981945 0
M  V30 38 H -0.610049 -3.613784 0.747625 0
M  V30 39 H 1.094864 -4.007462 0.922953 0
M  V30 40 H 0.558858 -2.368006 1.238920 0
M  V30 41 H 0.424743 -1.388437 -2.376676 0
M  V30 42 H -1.802652 -2.291510 -2.204150 0
M  V30 43 H -1.743009 -0.549089 -2.081774 0
M  V30 44 H -3.951503 -2.010065 -2.688648 0
M  V30 45 H -6.228786 -1.586032 -3.460785 0
M  V30 46 H -7.920093 -0.608854 -1.932837 0
M  V30 47 H -7.296275 -0.064354 0.406956 0
M  V30 48 H -5.016726 -0.473791 1.211583 0
M  V30 49 H -2.644961 1.344275 -0.854573 0
M  V30 50 H -2.055500 3.401741 0.353330 0
M  V30 51 H -1.303799 3.299434 2.717489 0
M  V30 52 H -1.154000 1.106804 3.872344 0
M  V30 53 H -1.738002 -0.967733 2.681860 0
M  V30 54 H 0.182061 -0.321889 0.353293 0
M  V30 55 H 1.138024 1.504597 0.572866 0
M  V30 56 H 2.107408 3.308394 1.625329 0
M  V30 57 H 4.026009 4.749511 2.010621 0
M  V30 58 H 6.249454 5.217216 2.702215 0
M  V30 59 H 5.738077 6.250914 1.311189 0
M  V30 60 H 7.451083 5.979438 1.653363 0
M  V30 61 H 6.375945 2.343986 -0.681357 0
M  V30 62 H 4.455266 0.886947 -1.070854 0
M  V30 END ATOM
M  V30 BEGIN BOND
M  V30 1 1 1 2
M  V30 2 1 2 3
M  V30 3 1 3 4
M  V30 4 1 3 5
M  V30 5 1 5 6
M  V30 6 1 6 7
M  V30 7 1 7 8
M  V30 8 2 8 9
M  V30 9 1 9 10
M  V30 10 2 10 11
M  V30 11 1 11 12
M  V30 12 2 12 13
M  V30 13 1 7 14
M  V30 14 2 14 15
M  V30 15 1 15 16
M  V30 16 2 16 17
M  V30 17 1 17 18
M  V30 18 2 18 19
M  V30 19 1 5 20
M  V30 20 1 20 21
M  V30 21 2 21 22
M  V30 22 1 21 23
M  V30 23 1 23 24
M  V30 24 2 24 25
M  V30 25 1 25 26
M  V30 26 2 26 27
M  V30 27 1 27 28
M  V30 28 1 28 29
M  V30 29 1 27 30
M  V30 30 2 30 31
M  V30 31 1 13 8
M  V30 32 1 19 14
M  V30 33 1 31 24
M  V30 34 1 1 32
M  V30 35 1 1 33
M  V30 36 1 1 34
M  V30 37 1 2 35
M  V30 38 1 2 36
M  V30 39 1 3 37 CFG=1
M  V30 40 1 4 38
M  V30 41 1 4 39
M  V30 42 1 4 40
M  V30 43 1 5 41 CFG=3
M  V30 44 1 6 42
M  V30 45 1 6 43
M  V30 46 1 9 44
M  V30 47 1 10 45
M  V30 48 1 11 46
M  V30 49 1 12 47
M  V30 50 1 13 48
M  V30 51 1 15 49
M  V30 52 1 16 50
M  V30 53 1 17 51
M  V30 54 1 18 52
M  V30 55 1 19 53
M  V30 56 1 20 54
M  V30 57 1 23 55
M  V30 58 1 25 56
M  V30 59 1 26 57
M  V30 60 1 29 58
M  V30 61 1 29 59
M  V30 62 1 29 60
M  V30 63 1 30 61
M  V30 64 1 31 62
M  V30 END BOND
M  V30 END CTAB
M  END
>  <catalyst_id>  (1) 
LMZDTZBYSZWNMG_NBGIEHNGSA_NONE

>  <source_smiles>  (1) 
CC[C@H](C)[C@@H](CP(c1ccccc1)c1ccccc1)NC(=O)Nc1ccc(OC)cc1

>  <axial_configuration>  (1) 
none

>  <inchikey>  (1) 
LMZDTZBYSZWNMG-NBGIEHNGSA-N

>  <build_source>  (1) 
smiles

>  <rdkit_version>  (1) 
2025.09.6

>  <random_seed>  (1) 
42

>  <generated_at>  (1) 
2026-05-19T12:33:42

$$$$
