catalyst201
     RDKit          3D

  0  0  0  0  0  0  0  0  0  0999 V3000
M  V30 BEGIN CTAB
M  V30 COUNTS 79 84 0 0 0
M  V30 BEGIN ATOM
M  V30 1 C -1.357010 5.534822 2.343516 0
M  V30 2 C -1.085525 4.415291 1.660249 0
M  V30 3 C -0.185267 4.364536 0.448273 0 CFG=1
M  V30 4 C 0.982950 3.357885 0.628336 0
M  V30 5 N 1.003528 2.324605 -0.443868 0
M  V30 6 C 1.169694 3.013236 -1.746184 0
M  V30 7 C 0.060254 4.044267 -2.002656 0
M  V30 8 C -0.954506 3.999115 -0.845992 0 CFG=1
M  V30 9 C -1.475271 2.550846 -0.786768 0
M  V30 10 C -0.318089 1.602137 -0.402508 0 CFG=1
M  V30 11 C -0.300889 0.275498 -1.250283 0 CFG=1
M  V30 12 N 1.017957 -0.369642 -1.078656 0
M  V30 13 C 1.588531 -1.323021 -1.865143 0
M  V30 14 S 0.904679 -2.000292 -3.231666 0
M  V30 15 N 2.851079 -1.729835 -1.529409 0
M  V30 16 C 3.599334 -1.602093 -0.340966 0
M  V30 17 C 4.956999 -1.936315 -0.404861 0
M  V30 18 C 5.785251 -1.844409 0.727121 0
M  V30 19 C 7.247496 -2.210401 0.633218 0
M  V30 20 F 7.785868 -1.937937 -0.587514 0
M  V30 21 F 7.461746 -3.535668 0.852112 0
M  V30 22 F 8.020615 -1.548410 1.537580 0
M  V30 23 C 5.223715 -1.442518 1.948236 0
M  V30 24 C 3.858061 -1.137964 2.042609 0
M  V30 25 C 3.253870 -0.703225 3.356764 0
M  V30 26 F 3.776945 -1.365756 4.424603 0
M  V30 27 F 1.905689 -0.896959 3.421661 0
M  V30 28 F 3.452127 0.620760 3.601043 0
M  V30 29 C 3.060057 -1.220946 0.888919 0
M  V30 30 C -1.433373 -0.655887 -0.820113 0
M  V30 31 C -1.314961 -1.311815 0.420745 0
M  V30 32 C -2.330373 -2.134928 0.885838 0
M  V30 33 C -2.262358 -2.858393 2.175851 0
M  V30 34 C -2.967224 -4.065459 2.356783 0
M  V30 35 C -2.915090 -4.774344 3.562229 0
M  V30 36 C -2.154912 -4.283726 4.617280 0
M  V30 37 Cl -2.085268 -5.149904 6.101400 0
M  V30 38 C -1.452324 -3.091529 4.476932 0
M  V30 39 C -1.508687 -2.385828 3.268394 0
M  V30 40 N -3.455913 -2.324839 0.162856 0
M  V30 41 C -3.589415 -1.721470 -1.027414 0
M  V30 42 C -4.763195 -1.954404 -1.725507 0
M  V30 43 C -5.003923 -1.382059 -2.974616 0
M  V30 44 C -4.050842 -0.560337 -3.559113 0
M  V30 45 O -4.392122 -0.066611 -4.786447 0
M  V30 46 C -3.379471 0.619901 -5.511625 0
M  V30 47 C -2.865930 -0.304366 -2.867398 0
M  V30 48 C -2.608980 -0.871382 -1.588330 0
M  V30 49 H -0.941916 6.496882 2.059143 0
M  V30 50 H -2.010719 5.511028 3.210715 0
M  V30 51 H -1.532676 3.482461 1.998870 0
M  V30 52 H 0.257615 5.360296 0.302156 0
M  V30 53 H 1.937992 3.899838 0.617607 0
M  V30 54 H 0.948331 2.862711 1.607554 0
M  V30 55 H 2.148512 3.508509 -1.774091 0
M  V30 56 H 1.197621 2.281282 -2.561702 0
M  V30 57 H 0.491604 5.048755 -2.088257 0
M  V30 58 H -0.439431 3.825568 -2.954005 0
M  V30 59 H -1.776770 4.698695 -1.033329 0
M  V30 60 H -1.900281 2.289783 -1.762229 0
M  V30 61 H -2.287577 2.462024 -0.056421 0
M  V30 62 H -0.462100 1.305229 0.646452 0
M  V30 63 H -0.364917 0.533115 -2.309514 0
M  V30 64 H 1.695846 0.299850 -0.721415 0
M  V30 65 H 3.281542 -2.280317 -2.266386 0
M  V30 66 H 5.393753 -2.256882 -1.350703 0
M  V30 67 H 5.853538 -1.376112 2.837356 0
M  V30 68 H 1.998064 -1.024681 0.995191 0
M  V30 69 H -0.411325 -1.184904 1.007499 0
M  V30 70 H -3.567947 -4.466804 1.540746 0
M  V30 71 H -3.470268 -5.702726 3.663559 0
M  V30 72 H -0.861904 -2.699908 5.301122 0
M  V30 73 H -0.961093 -1.448068 3.205045 0
M  V30 74 H -5.516523 -2.604769 -1.286528 0
M  V30 75 H -5.936074 -1.591123 -3.493138 0
M  V30 76 H -3.111567 1.558814 -5.016154 0
M  V30 77 H -2.498825 -0.013564 -5.662261 0
M  V30 78 H -3.784124 0.867883 -6.497592 0
M  V30 79 H -2.123913 0.336909 -3.324800 0
M  V30 END ATOM
M  V30 BEGIN BOND
M  V30 1 2 1 2
M  V30 2 1 2 3
M  V30 3 1 3 4
M  V30 4 1 4 5
M  V30 5 1 5 6
M  V30 6 1 6 7
M  V30 7 1 7 8
M  V30 8 1 8 9
M  V30 9 1 9 10
M  V30 10 1 10 11
M  V30 11 1 11 12
M  V30 12 1 12 13
M  V30 13 2 13 14
M  V30 14 1 13 15
M  V30 15 1 15 16
M  V30 16 2 16 17
M  V30 17 1 17 18
M  V30 18 1 18 19
M  V30 19 1 19 20
M  V30 20 1 19 21
M  V30 21 1 19 22
M  V30 22 2 18 23
M  V30 23 1 23 24
M  V30 24 1 24 25
M  V30 25 1 25 26
M  V30 26 1 25 27
M  V30 27 1 25 28
M  V30 28 2 24 29
M  V30 29 1 11 30
M  V30 30 2 30 31
M  V30 31 1 31 32
M  V30 32 1 32 33
M  V30 33 2 33 34
M  V30 34 1 34 35
M  V30 35 2 35 36
M  V30 36 1 36 37
M  V30 37 1 36 38
M  V30 38 2 38 39
M  V30 39 2 32 40
M  V30 40 1 40 41
M  V30 41 2 41 42
M  V30 42 1 42 43
M  V30 43 2 43 44
M  V30 44 1 44 45
M  V30 45 1 45 46
M  V30 46 1 44 47
M  V30 47 2 47 48
M  V30 48 1 8 3
M  V30 49 1 29 16
M  V30 50 1 48 30
M  V30 51 1 10 5
M  V30 52 1 39 33
M  V30 53 1 48 41
M  V30 54 1 1 49
M  V30 55 1 1 50
M  V30 56 1 2 51
M  V30 57 1 3 52 CFG=3
M  V30 58 1 4 53
M  V30 59 1 4 54
M  V30 60 1 6 55
M  V30 61 1 6 56
M  V30 62 1 7 57
M  V30 63 1 7 58
M  V30 64 1 8 59 CFG=3
M  V30 65 1 9 60
M  V30 66 1 9 61
M  V30 67 1 10 62 CFG=1
M  V30 68 1 11 63 CFG=3
M  V30 69 1 12 64
M  V30 70 1 15 65
M  V30 71 1 17 66
M  V30 72 1 23 67
M  V30 73 1 29 68
M  V30 74 1 31 69
M  V30 75 1 34 70
M  V30 76 1 35 71
M  V30 77 1 38 72
M  V30 78 1 39 73
M  V30 79 1 42 74
M  V30 80 1 43 75
M  V30 81 1 46 76
M  V30 82 1 46 77
M  V30 83 1 46 78
M  V30 84 1 47 79
M  V30 END BOND
M  V30 END CTAB
M  END
>  <catalyst_id>  (1) 
MNCPHINEFDXKEN_DSILEPIQSA_NONE

>  <source_smiles>  (1) 
C=C[C@H]1CN2CC[C@H]1C[C@H]2[C@@H](NC(=S)Nc1cc(C(F)(F)F)cc(C(F)(F)F)c1)c1cc(-c2ccc(Cl)cc2)nc2ccc(OC)cc12

>  <axial_configuration>  (1) 
none

>  <inchikey>  (1) 
MNCPHINEFDXKEN-DSILEPIQSA-N

>  <build_source>  (1) 
smiles

>  <final_biaryl_angle_deg>  (1) 
-152.45

>  <rdkit_version>  (1) 
2025.09.6

>  <random_seed>  (1) 
42

>  <generated_at>  (1) 
2026-05-19T12:33:04

$$$$
