catalyst29
     RDKit          3D

  0  0  0  0  0  0  0  0  0  0999 V3000
M  V30 BEGIN CTAB
M  V30 COUNTS 61 63 0 0 0
M  V30 BEGIN ATOM
M  V30 1 C 0.860532 -2.742763 1.103977 0
M  V30 2 C -0.246712 -2.587487 0.044994 0
M  V30 3 C 0.145023 -3.415548 -1.199052 0
M  V30 4 C -1.548114 -3.204440 0.604853 0
M  V30 5 C -0.485960 -1.082021 -0.349100 0 CFG=1
M  V30 6 C -0.784091 -0.171329 0.874052 0
M  V30 7 P -1.509061 1.479791 0.416853 0
M  V30 8 C -1.860631 2.268260 2.030993 0
M  V30 9 C -2.875696 3.237054 2.122509 0
M  V30 10 C -3.163073 3.875249 3.332440 0
M  V30 11 C -2.428617 3.568018 4.472766 0
M  V30 12 C -1.403126 2.630207 4.399490 0
M  V30 13 C -1.117380 1.991614 3.187537 0
M  V30 14 C -3.182877 0.974489 -0.120724 0
M  V30 15 C -3.590052 1.275858 -1.428021 0
M  V30 16 C -4.851399 0.893040 -1.890927 0
M  V30 17 C -5.724869 0.207539 -1.050755 0
M  V30 18 C -5.338119 -0.094839 0.252289 0
M  V30 19 C -4.075389 0.285316 0.714144 0
M  V30 20 N 0.685153 -0.541190 -1.084863 0
M  V30 21 C 0.755336 -0.133890 -2.386781 0
M  V30 22 S -0.480877 -0.185925 -3.510099 0
M  V30 23 N 1.935634 0.424638 -2.794781 0
M  V30 24 C 3.248565 0.322545 -2.296647 0
M  V30 25 C 3.681668 -0.698543 -1.449879 0
M  V30 26 C 5.010941 -0.746284 -1.014390 0
M  V30 27 C 5.938084 0.215913 -1.438305 0
M  V30 28 C 7.365471 0.176245 -0.949138 0
M  V30 29 F 7.527116 0.846888 0.224496 0
M  V30 30 F 7.816475 -1.089084 -0.722214 0
M  V30 31 F 8.248092 0.733709 -1.824231 0
M  V30 32 C 5.505646 1.226728 -2.306951 0
M  V30 33 C 4.177061 1.269082 -2.742175 0
M  V30 34 H 1.045083 -3.800399 1.325813 0
M  V30 35 H 0.588855 -2.259600 2.048280 0
M  V30 36 H 1.806658 -2.310077 0.765647 0
M  V30 37 H -0.612267 -3.327726 -1.985699 0
M  V30 38 H 1.106966 -3.099680 -1.615029 0
M  V30 39 H 0.239340 -4.479492 -0.951694 0
M  V30 40 H -2.381531 -3.067748 -0.093311 0
M  V30 41 H -1.432233 -4.281570 0.773767 0
M  V30 42 H -1.836371 -2.765018 1.564270 0
M  V30 43 H -1.352348 -1.068337 -1.017797 0
M  V30 44 H -1.462930 -0.661158 1.575633 0
M  V30 45 H 0.154532 0.013600 1.408321 0
M  V30 46 H -3.461280 3.507830 1.245265 0
M  V30 47 H -3.958342 4.614616 3.377741 0
M  V30 48 H -2.648497 4.065298 5.413557 0
M  V30 49 H -0.816901 2.398257 5.285016 0
M  V30 50 H -0.294686 1.283827 3.174006 0
M  V30 51 H -2.924320 1.806849 -2.105803 0
M  V30 52 H -5.146646 1.128658 -2.910068 0
M  V30 53 H -6.705750 -0.089863 -1.411700 0
M  V30 54 H -6.019288 -0.625527 0.912156 0
M  V30 55 H -3.803575 0.043129 1.738900 0
M  V30 56 H 1.426655 -0.179667 -0.500928 0
M  V30 57 H 1.832719 0.952555 -3.655812 0
M  V30 58 H 3.019420 -1.506569 -1.156215 0
M  V30 59 H 5.324709 -1.555044 -0.355159 0
M  V30 60 H 6.203610 1.987709 -2.654145 0
M  V30 61 H 3.873663 2.066308 -3.417370 0
M  V30 END ATOM
M  V30 BEGIN BOND
M  V30 1 1 1 2
M  V30 2 1 2 3
M  V30 3 1 2 4
M  V30 4 1 2 5
M  V30 5 1 5 6
M  V30 6 1 6 7
M  V30 7 1 7 8
M  V30 8 2 8 9
M  V30 9 1 9 10
M  V30 10 2 10 11
M  V30 11 1 11 12
M  V30 12 2 12 13
M  V30 13 1 7 14
M  V30 14 2 14 15
M  V30 15 1 15 16
M  V30 16 2 16 17
M  V30 17 1 17 18
M  V30 18 2 18 19
M  V30 19 1 5 20
M  V30 20 1 20 21
M  V30 21 2 21 22
M  V30 22 1 21 23
M  V30 23 1 23 24
M  V30 24 2 24 25
M  V30 25 1 25 26
M  V30 26 2 26 27
M  V30 27 1 27 28
M  V30 28 1 28 29
M  V30 29 1 28 30
M  V30 30 1 28 31
M  V30 31 1 27 32
M  V30 32 2 32 33
M  V30 33 1 13 8
M  V30 34 1 19 14
M  V30 35 1 33 24
M  V30 36 1 1 34
M  V30 37 1 1 35
M  V30 38 1 1 36
M  V30 39 1 3 37
M  V30 40 1 3 38
M  V30 41 1 3 39
M  V30 42 1 4 40
M  V30 43 1 4 41
M  V30 44 1 4 42
M  V30 45 1 5 43 CFG=3
M  V30 46 1 6 44
M  V30 47 1 6 45
M  V30 48 1 9 46
M  V30 49 1 10 47
M  V30 50 1 11 48
M  V30 51 1 12 49
M  V30 52 1 13 50
M  V30 53 1 15 51
M  V30 54 1 16 52
M  V30 55 1 17 53
M  V30 56 1 18 54
M  V30 57 1 19 55
M  V30 58 1 20 56
M  V30 59 1 23 57
M  V30 60 1 25 58
M  V30 61 1 26 59
M  V30 62 1 32 60
M  V30 63 1 33 61
M  V30 END BOND
M  V30 END CTAB
M  END
>  <catalyst_id>  (1) 
CMYGUPNXMQAXJQ_HSZRJFAPSA_NONE

>  <source_smiles>  (1) 
CC(C)(C)[C@@H](CP(c1ccccc1)c1ccccc1)NC(=S)Nc1ccc(C(F)(F)F)cc1

>  <axial_configuration>  (1) 
none

>  <inchikey>  (1) 
CMYGUPNXMQAXJQ-HSZRJFAPSA-N

>  <build_source>  (1) 
smiles

>  <rdkit_version>  (1) 
2025.09.6

>  <random_seed>  (1) 
42

>  <generated_at>  (1) 
2026-05-19T12:34:35

$$$$
