catalyst275
     RDKit          3D

  0  0  0  0  0  0  0  0  0  0999 V3000
M  V30 BEGIN CTAB
M  V30 COUNTS 27 28 0 0 0
M  V30 BEGIN ATOM
M  V30 1 N 3.735636 -1.083179 0.132671 0
M  V30 2 C 2.478617 -0.350042 -0.166845 0 CFG=1
M  V30 3 C 1.290028 -1.313725 -0.316942 0
M  V30 4 C 0.047247 -0.647255 -0.825846 0
M  V30 5 C -0.260369 -0.394356 -2.148759 0
M  V30 6 N -1.475956 0.232974 -2.195881 0
M  V30 7 C -1.977728 0.395284 -0.926255 0
M  V30 8 C -3.176329 0.979562 -0.499043 0
M  V30 9 C -3.430415 1.007335 0.875073 0
M  V30 10 C -2.520791 0.471476 1.782841 0
M  V30 11 C -1.327399 -0.109406 1.338298 0
M  V30 12 C -1.045708 -0.150510 -0.043272 0
M  V30 13 C 2.199772 0.628445 0.974549 0
M  V30 14 O 2.142840 0.346708 2.164030 0
M  V30 15 O 2.005885 1.895962 0.559427 0
M  V30 16 H 3.650538 -1.499783 1.062810 0
M  V30 17 H 3.842338 -1.855995 -0.521629 0
M  V30 18 H 2.638216 0.215860 -1.091878 0
M  V30 19 H 1.556090 -2.114852 -1.020047 0
M  V30 20 H 1.074961 -1.809042 0.638919 0
M  V30 21 H 0.283816 -0.604222 -3.060212 0
M  V30 22 H -1.943341 0.537119 -3.038520 0
M  V30 23 H -3.887267 1.397873 -1.203862 0
M  V30 24 H -4.352718 1.453860 1.239519 0
M  V30 25 H -2.736631 0.502598 2.847971 0
M  V30 26 H -0.626779 -0.521660 2.059433 0
M  V30 27 H 1.815445 2.388972 1.383448 0
M  V30 END ATOM
M  V30 BEGIN BOND
M  V30 1 1 1 2
M  V30 2 1 2 3
M  V30 3 1 3 4
M  V30 4 2 4 5
M  V30 5 1 5 6
M  V30 6 1 6 7
M  V30 7 2 7 8
M  V30 8 1 8 9
M  V30 9 2 9 10
M  V30 10 1 10 11
M  V30 11 2 11 12
M  V30 12 1 2 13
M  V30 13 2 13 14
M  V30 14 1 13 15
M  V30 15 1 12 4
M  V30 16 1 12 7
M  V30 17 1 1 16
M  V30 18 1 1 17
M  V30 19 1 2 18 CFG=3
M  V30 20 1 3 19
M  V30 21 1 3 20
M  V30 22 1 5 21
M  V30 23 1 6 22
M  V30 24 1 8 23
M  V30 25 1 9 24
M  V30 26 1 10 25
M  V30 27 1 11 26
M  V30 28 1 15 27
M  V30 END BOND
M  V30 END CTAB
M  END
>  <catalyst_id>  (1) 
QIVBCDIJIAJPQS_VIFPVBQESA_NONE

>  <source_smiles>  (1) 
N[C@@H](Cc1c[nH]c2ccccc12)C(=O)O

>  <axial_configuration>  (1) 
none

>  <inchikey>  (1) 
QIVBCDIJIAJPQS-VIFPVBQESA-N

>  <build_source>  (1) 
smiles

>  <rdkit_version>  (1) 
2025.09.6

>  <random_seed>  (1) 
42

>  <generated_at>  (1) 
2026-05-19T12:30:03

$$$$
