catalyst163
     RDKit          3D

  0  0  0  0  0  0  0  0  0  0999 V3000
M  V30 BEGIN CTAB
M  V30 COUNTS 71 75 0 0 0
M  V30 BEGIN ATOM
M  V30 1 F -7.308067 0.522516 3.770992 0
M  V30 2 C -7.277486 0.180656 2.454651 0
M  V30 3 F -7.326263 -1.179190 2.413499 0
M  V30 4 F -8.460624 0.608323 1.930158 0
M  V30 5 C -6.077291 0.754207 1.738562 0
M  V30 6 C -4.846789 0.073954 1.768780 0
M  V30 7 C -3.720939 0.595879 1.132111 0
M  V30 8 N -2.465553 -0.043035 1.090364 0
M  V30 9 C -1.889218 -0.973616 1.918490 0
M  V30 10 S -2.336395 -1.417600 3.463238 0
M  V30 11 N -0.763235 -1.574552 1.412700 0
M  V30 12 C -0.358995 -1.653512 -0.007662 0 CFG=2
M  V30 13 C 0.371062 -2.971450 -0.245717 0
M  V30 14 C -0.141725 -3.900811 -1.163480 0
M  V30 15 C 0.519796 -5.107544 -1.397309 0
M  V30 16 C 1.699382 -5.401579 -0.716923 0
M  V30 17 C 2.220132 -4.490184 0.198629 0
M  V30 18 C 1.561365 -3.282724 0.434589 0
M  V30 19 C 0.505398 -0.412861 -0.490240 0 CFG=2
M  V30 20 N 0.068431 0.852627 0.169878 0
M  V30 21 C 0.963193 1.991271 -0.090935 0
M  V30 22 C 2.325910 1.847002 0.544399 0
M  V30 23 C 2.479932 1.930939 1.933301 0
M  V30 24 C 3.737404 1.763568 2.517554 0
M  V30 25 C 4.868259 1.508283 1.727266 0
M  V30 26 C 6.138115 1.333183 2.300597 0
M  V30 27 C 7.253215 1.079741 1.500248 0
M  V30 28 C 7.113326 0.998902 0.117947 0
M  V30 29 C 5.857976 1.171235 -0.467331 0
M  V30 30 C 4.726214 1.426347 0.323850 0
M  V30 31 C 3.456066 1.599822 -0.250173 0
M  V30 32 C 0.458148 -0.315047 -2.012253 0
M  V30 33 C 1.550810 -0.758353 -2.774349 0
M  V30 34 C 1.518016 -0.694945 -4.168090 0
M  V30 35 C 0.393583 -0.190794 -4.817870 0
M  V30 36 C -0.700817 0.247898 -4.075914 0
M  V30 37 C -0.671325 0.183960 -2.682125 0
M  V30 38 C -3.839941 1.799901 0.426263 0
M  V30 39 C -5.050551 2.511043 0.394539 0
M  V30 40 C -5.148241 3.806487 -0.373722 0
M  V30 41 F -4.015482 4.557982 -0.291440 0
M  V30 42 F -5.365932 3.601130 -1.701412 0
M  V30 43 F -6.160739 4.609936 0.053974 0
M  V30 44 C -6.165117 1.978047 1.057095 0
M  V30 45 H -4.808853 -0.889492 2.270298 0
M  V30 46 H -1.784636 0.400545 0.473446 0
M  V30 47 H -0.401041 -2.301689 2.020511 0
M  V30 48 H -1.298444 -1.671470 -0.576675 0
M  V30 49 H -1.059263 -3.689918 -1.709477 0
M  V30 50 H 0.113589 -5.818728 -2.112194 0
M  V30 51 H 2.212295 -6.342230 -0.900030 0
M  V30 52 H 3.140315 -4.720201 0.729986 0
M  V30 53 H 1.987533 -2.585727 1.154059 0
M  V30 54 H 1.540448 -0.595295 -0.178606 0
M  V30 55 H 0.112260 0.666838 1.177505 0
M  V30 56 H 1.049784 2.195639 -1.164243 0
M  V30 57 H 0.491272 2.889224 0.327857 0
M  V30 58 H 1.621599 2.128525 2.572080 0
M  V30 59 H 3.828065 1.834264 3.599415 0
M  V30 60 H 6.267928 1.394259 3.378813 0
M  V30 61 H 8.230469 0.947313 1.957214 0
M  V30 62 H 7.981298 0.803393 -0.506350 0
M  V30 63 H 5.769456 1.106380 -1.549490 0
M  V30 64 H 3.342179 1.535360 -1.331334 0
M  V30 65 H 2.434084 -1.166498 -2.286271 0
M  V30 66 H 2.368989 -1.044267 -4.747242 0
M  V30 67 H 0.369003 -0.142504 -5.903441 0
M  V30 68 H -1.578623 0.639974 -4.583290 0
M  V30 69 H -1.534869 0.531894 -2.120362 0
M  V30 70 H -2.975090 2.211640 -0.094615 0
M  V30 71 H -7.114756 2.515726 1.035706 0
M  V30 END ATOM
M  V30 BEGIN BOND
M  V30 1 1 1 2
M  V30 2 1 2 3
M  V30 3 1 2 4
M  V30 4 1 2 5
M  V30 5 2 5 6
M  V30 6 1 6 7
M  V30 7 1 7 8
M  V30 8 1 8 9
M  V30 9 2 9 10
M  V30 10 1 9 11
M  V30 11 1 11 12
M  V30 12 1 12 13
M  V30 13 2 13 14
M  V30 14 1 14 15
M  V30 15 2 15 16
M  V30 16 1 16 17
M  V30 17 2 17 18
M  V30 18 1 12 19
M  V30 19 1 19 20
M  V30 20 1 20 21
M  V30 21 1 21 22
M  V30 22 2 22 23
M  V30 23 1 23 24
M  V30 24 2 24 25
M  V30 25 1 25 26
M  V30 26 2 26 27
M  V30 27 1 27 28
M  V30 28 2 28 29
M  V30 29 1 29 30
M  V30 30 2 30 31
M  V30 31 1 19 32
M  V30 32 2 32 33
M  V30 33 1 33 34
M  V30 34 2 34 35
M  V30 35 1 35 36
M  V30 36 2 36 37
M  V30 37 2 7 38
M  V30 38 1 38 39
M  V30 39 1 39 40
M  V30 40 1 40 41
M  V30 41 1 40 42
M  V30 42 1 40 43
M  V30 43 2 39 44
M  V30 44 1 44 5
M  V30 45 1 18 13
M  V30 46 1 31 22
M  V30 47 1 37 32
M  V30 48 1 30 25
M  V30 49 1 6 45
M  V30 50 1 8 46
M  V30 51 1 11 47
M  V30 52 1 12 48 CFG=3
M  V30 53 1 14 49
M  V30 54 1 15 50
M  V30 55 1 16 51
M  V30 56 1 17 52
M  V30 57 1 18 53
M  V30 58 1 19 54 CFG=3
M  V30 59 1 20 55
M  V30 60 1 21 56
M  V30 61 1 21 57
M  V30 62 1 23 58
M  V30 63 1 24 59
M  V30 64 1 26 60
M  V30 65 1 27 61
M  V30 66 1 28 62
M  V30 67 1 29 63
M  V30 68 1 31 64
M  V30 69 1 33 65
M  V30 70 1 34 66
M  V30 71 1 35 67
M  V30 72 1 36 68
M  V30 73 1 37 69
M  V30 74 1 38 70
M  V30 75 1 44 71
M  V30 END BOND
M  V30 END CTAB
M  END
>  <catalyst_id>  (1) 
KXSSNCDKNCAJRA_FIRIVFDPSA_NONE

>  <source_smiles>  (1) 
FC(F)(F)c1cc(NC(=S)N[C@H](c2ccccc2)[C@H](NCc2ccc3ccccc3c2)c2ccccc2)cc(C(F)(F)F)c1

>  <axial_configuration>  (1) 
none

>  <inchikey>  (1) 
KXSSNCDKNCAJRA-FIRIVFDPSA-N

>  <build_source>  (1) 
smiles

>  <rdkit_version>  (1) 
2025.09.6

>  <random_seed>  (1) 
42

>  <generated_at>  (1) 
2026-05-19T12:30:10

$$$$
