catalyst335
     RDKit          3D

  0  0  0  0  0  0  0  0  0  0999 V3000
M  V30 BEGIN CTAB
M  V30 COUNTS 63 67 0 0 0
M  V30 BEGIN ATOM
M  V30 1 C -5.652192 -0.147415 1.274149 0
M  V30 2 C -4.759798 0.340081 2.145937 0
M  V30 3 C -3.768195 1.464115 1.929135 0 CFG=1
M  V30 4 C -2.357612 1.089065 2.468643 0
M  V30 5 N -1.274802 1.394686 1.495887 0
M  V30 6 C -1.336815 2.838493 1.169503 0
M  V30 7 C -2.688180 3.238606 0.561516 0
M  V30 8 C -3.603281 2.002070 0.483442 0 CFG=1
M  V30 9 C -2.867661 0.980288 -0.404067 0
M  V30 10 C -1.536855 0.565805 0.265131 0 CFG=1
M  V30 11 C -0.326755 0.584147 -0.735854 0 CFG=1
M  V30 12 N 0.939546 0.555331 -0.006075 0
M  V30 13 C 2.082878 1.079400 -0.575630 0
M  V30 14 O 2.108194 1.542388 -1.707734 0
M  V30 15 N 3.133683 0.992316 0.310710 0
M  V30 16 C 4.444226 1.479664 0.149245 0
M  V30 17 C 4.848591 2.284204 -0.917356 0
M  V30 18 C 6.169085 2.737538 -1.001862 0
M  V30 19 C 7.094087 2.393148 -0.019058 0
M  V30 20 C 6.699573 1.595274 1.051378 0
M  V30 21 C 5.380320 1.142197 1.135473 0
M  V30 22 C -0.403431 -0.527639 -1.779958 0
M  V30 23 C -0.633636 -0.140832 -3.108576 0
M  V30 24 C -0.745992 -1.112371 -4.080950 0
M  V30 25 N -0.654397 -2.431310 -3.832621 0
M  V30 26 C -0.405346 -2.819600 -2.573452 0
M  V30 27 C -0.286242 -4.181750 -2.338922 0
M  V30 28 C -0.017687 -4.701129 -1.069017 0
M  V30 29 C 0.142136 -3.837708 0.003375 0
M  V30 30 O 0.413332 -4.194451 1.294689 0
M  V30 31 C 0.569808 -5.583772 1.556861 0
M  V30 32 C 0.021958 -2.462399 -0.214035 0
M  V30 33 C -0.260742 -1.917253 -1.493388 0
M  V30 34 H -5.757693 0.232752 0.264177 0
M  V30 35 H -6.320534 -0.953526 1.564371 0
M  V30 36 H -4.755838 -0.094233 3.146392 0
M  V30 37 H -4.137977 2.297014 2.545298 0
M  V30 38 H -2.297327 0.029379 2.749801 0
M  V30 39 H -2.165968 1.640978 3.398561 0
M  V30 40 H -0.523037 3.112210 0.488254 0
M  V30 41 H -1.153024 3.423938 2.079453 0
M  V30 42 H -2.537274 3.659601 -0.439878 0
M  V30 43 H -3.158057 4.019496 1.171250 0
M  V30 44 H -4.565528 2.282750 0.042010 0
M  V30 45 H -3.484443 0.090543 -0.569028 0
M  V30 46 H -2.696837 1.427058 -1.390953 0
M  V30 47 H -1.657687 -0.466104 0.616273 0
M  V30 48 H -0.348587 1.553509 -1.252690 0
M  V30 49 H 0.817103 0.815171 0.966193 0
M  V30 50 H 2.966126 0.386355 1.099967 0
M  V30 51 H 4.157509 2.578317 -1.701107 0
M  V30 52 H 6.470719 3.360311 -1.840182 0
M  V30 53 H 8.119449 2.746172 -0.089065 0
M  V30 54 H 7.417619 1.323868 1.820595 0
M  V30 55 H 5.097128 0.520186 1.980263 0
M  V30 56 H -0.711657 0.905144 -3.389110 0
M  V30 57 H -0.918693 -0.846909 -5.119846 0
M  V30 58 H -0.401874 -4.865512 -3.177466 0
M  V30 59 H 0.063390 -5.777305 -0.964587 0
M  V30 60 H -0.355266 -6.131100 1.347779 0
M  V30 61 H 0.791603 -5.699773 2.622116 0
M  V30 62 H 1.412045 -5.999697 0.994021 0
M  V30 63 H 0.166813 -1.811780 0.643643 0
M  V30 END ATOM
M  V30 BEGIN BOND
M  V30 1 2 1 2
M  V30 2 1 2 3
M  V30 3 1 3 4
M  V30 4 1 4 5
M  V30 5 1 5 6
M  V30 6 1 6 7
M  V30 7 1 7 8
M  V30 8 1 8 9
M  V30 9 1 9 10
M  V30 10 1 10 11
M  V30 11 1 11 12
M  V30 12 1 12 13
M  V30 13 2 13 14
M  V30 14 1 13 15
M  V30 15 1 15 16
M  V30 16 2 16 17
M  V30 17 1 17 18
M  V30 18 2 18 19
M  V30 19 1 19 20
M  V30 20 2 20 21
M  V30 21 1 11 22
M  V30 22 2 22 23
M  V30 23 1 23 24
M  V30 24 2 24 25
M  V30 25 1 25 26
M  V30 26 2 26 27
M  V30 27 1 27 28
M  V30 28 2 28 29
M  V30 29 1 29 30
M  V30 30 1 30 31
M  V30 31 1 29 32
M  V30 32 2 32 33
M  V30 33 1 8 3
M  V30 34 1 21 16
M  V30 35 1 33 22
M  V30 36 1 10 5
M  V30 37 1 33 26
M  V30 38 1 1 34
M  V30 39 1 1 35
M  V30 40 1 2 36
M  V30 41 1 3 37 CFG=1
M  V30 42 1 4 38
M  V30 43 1 4 39
M  V30 44 1 6 40
M  V30 45 1 6 41
M  V30 46 1 7 42
M  V30 47 1 7 43
M  V30 48 1 8 44 CFG=3
M  V30 49 1 9 45
M  V30 50 1 9 46
M  V30 51 1 10 47 CFG=1
M  V30 52 1 11 48 CFG=3
M  V30 53 1 12 49
M  V30 54 1 15 50
M  V30 55 1 17 51
M  V30 56 1 18 52
M  V30 57 1 19 53
M  V30 58 1 20 54
M  V30 59 1 21 55
M  V30 60 1 23 56
M  V30 61 1 24 57
M  V30 62 1 27 58
M  V30 63 1 28 59
M  V30 64 1 31 60
M  V30 65 1 31 61
M  V30 66 1 31 62
M  V30 67 1 32 63
M  V30 END BOND
M  V30 END CTAB
M  END
>  <catalyst_id>  (1) 
SOAKQSOLRWJGPU_KBFVSZBXSA_NONE

>  <source_smiles>  (1) 
C=C[C@H]1CN2CC[C@H]1C[C@H]2[C@@H](NC(=O)Nc1ccccc1)c1ccnc2ccc(OC)cc12

>  <axial_configuration>  (1) 
none

>  <inchikey>  (1) 
SOAKQSOLRWJGPU-KBFVSZBXSA-N

>  <build_source>  (1) 
smiles

>  <rdkit_version>  (1) 
2025.09.6

>  <random_seed>  (1) 
42

>  <generated_at>  (1) 
2026-05-19T12:40:22

$$$$
