catalyst31
     RDKit          3D

  0  0  0  0  0  0  0  0  0  0999 V3000
M  V30 BEGIN CTAB
M  V30 COUNTS 56 59 0 0 0
M  V30 BEGIN ATOM
M  V30 1 O 3.482006 -3.344395 -0.119625 0
M  V30 2 C 2.337817 -2.959984 -0.090217 0
M  V30 3 C 1.557321 -1.695626 -0.069145 0
M  V30 4 N 1.925982 -0.430642 -0.094771 0
M  V30 5 C 3.185730 0.173511 0.111249 0
M  V30 6 C 3.418932 1.435883 -0.458117 0
M  V30 7 C 4.660053 2.084697 -0.339861 0
M  V30 8 C 4.880083 3.430203 -0.987852 0
M  V30 9 F 5.272012 3.321031 -2.285868 0
M  V30 10 F 5.836007 4.173457 -0.365531 0
M  V30 11 F 3.757180 4.201616 -0.997908 0
M  V30 12 C 5.695670 1.441048 0.349890 0
M  V30 13 C 5.492951 0.181143 0.931377 0
M  V30 14 C 6.614782 -0.516747 1.664588 0
M  V30 15 F 7.389857 -1.267233 0.836709 0
M  V30 16 F 7.461981 0.356899 2.278885 0
M  V30 17 F 6.177609 -1.355084 2.644234 0
M  V30 18 C 4.239175 -0.441670 0.794030 0
M  V30 19 C 0.363530 -2.380973 -0.081718 0
M  V30 20 N -0.936430 -2.155096 -0.093195 0
M  V30 21 C -1.560873 -0.823798 -0.174819 0 CFG=1
M  V30 22 C -1.630201 -0.355163 -1.637264 0
M  V30 23 C -2.647765 -1.139240 -2.463327 0
M  V30 24 C -4.025514 -1.150669 -1.810696 0
M  V30 25 C -3.956672 -1.648763 -0.368718 0
M  V30 26 C -2.979357 -0.819607 0.504932 0 CFG=2
M  V30 27 N -3.489783 0.561094 0.728043 0
M  V30 28 C -2.646672 1.350477 1.637416 0
M  V30 29 C -3.530354 2.516938 2.054052 0
M  V30 30 C -4.954594 2.046371 1.810094 0
M  V30 31 C -4.819961 0.603999 1.350877 0
M  V30 32 C 1.054319 -3.694476 -0.079573 0
M  V30 33 O 0.768964 -4.865919 -0.079204 0
M  V30 34 H 1.209616 0.274572 -0.260383 0
M  V30 35 H 2.625011 1.926438 -1.021614 0
M  V30 36 H 6.670249 1.924571 0.437700 0
M  V30 37 H 4.099728 -1.412933 1.263141 0
M  V30 38 H -1.582782 -2.936134 -0.217650 0
M  V30 39 H -0.912144 -0.135871 0.376393 0
M  V30 40 H -0.645964 -0.434019 -2.114111 0
M  V30 41 H -1.900485 0.708068 -1.660883 0
M  V30 42 H -2.298367 -2.170530 -2.595370 0
M  V30 43 H -2.720648 -0.702031 -3.465714 0
M  V30 44 H -4.696221 -1.796691 -2.388729 0
M  V30 45 H -4.456335 -0.142877 -1.840061 0
M  V30 46 H -4.963246 -1.664657 0.062793 0
M  V30 47 H -3.643367 -2.699905 -0.372641 0
M  V30 48 H -2.897225 -1.325396 1.477434 0
M  V30 49 H -2.359849 0.770646 2.523916 0
M  V30 50 H -1.738662 1.720743 1.152184 0
M  V30 51 H -3.321465 3.404835 1.446206 0
M  V30 52 H -3.367251 2.783091 3.103485 0
M  V30 53 H -5.417570 2.659066 1.027320 0
M  V30 54 H -5.572661 2.129286 2.709631 0
M  V30 55 H -4.880829 -0.069895 2.214861 0
M  V30 56 H -5.623316 0.356341 0.650722 0
M  V30 END ATOM
M  V30 BEGIN BOND
M  V30 1 2 1 2
M  V30 2 1 2 3
M  V30 3 1 3 4
M  V30 4 1 4 5
M  V30 5 2 5 6
M  V30 6 1 6 7
M  V30 7 1 7 8
M  V30 8 1 8 9
M  V30 9 1 8 10
M  V30 10 1 8 11
M  V30 11 2 7 12
M  V30 12 1 12 13
M  V30 13 1 13 14
M  V30 14 1 14 15
M  V30 15 1 14 16
M  V30 16 1 14 17
M  V30 17 2 13 18
M  V30 18 2 3 19
M  V30 19 1 19 20
M  V30 20 1 20 21
M  V30 21 1 21 22
M  V30 22 1 22 23
M  V30 23 1 23 24
M  V30 24 1 24 25
M  V30 25 1 25 26
M  V30 26 1 26 27
M  V30 27 1 27 28
M  V30 28 1 28 29
M  V30 29 1 29 30
M  V30 30 1 30 31
M  V30 31 1 19 32
M  V30 32 2 32 33
M  V30 33 1 32 2
M  V30 34 1 18 5
M  V30 35 1 26 21
M  V30 36 1 31 27
M  V30 37 1 4 34
M  V30 38 1 6 35
M  V30 39 1 12 36
M  V30 40 1 18 37
M  V30 41 1 20 38
M  V30 42 1 21 39 CFG=1
M  V30 43 1 22 40
M  V30 44 1 22 41
M  V30 45 1 23 42
M  V30 46 1 23 43
M  V30 47 1 24 44
M  V30 48 1 24 45
M  V30 49 1 25 46
M  V30 50 1 25 47
M  V30 51 1 26 48 CFG=1
M  V30 52 1 28 49
M  V30 53 1 28 50
M  V30 54 1 29 51
M  V30 55 1 29 52
M  V30 56 1 30 53
M  V30 57 1 30 54
M  V30 58 1 31 55
M  V30 59 1 31 56
M  V30 END BOND
M  V30 END CTAB
M  END
>  <catalyst_id>  (1) 
CRIYFAISGRLYEW_HOTGVXAUSA_NONE

>  <source_smiles>  (1) 
O=c1c(Nc2cc(C(F)(F)F)cc(C(F)(F)F)c2)c(N[C@H]2CCCC[C@@H]2N2CCCC2)c1=O

>  <axial_configuration>  (1) 
none

>  <inchikey>  (1) 
CRIYFAISGRLYEW-HOTGVXAUSA-N

>  <build_source>  (1) 
smiles

>  <rdkit_version>  (1) 
2025.09.6

>  <random_seed>  (1) 
42

>  <generated_at>  (1) 
2026-05-19T12:40:08

$$$$
