catalyst51
     RDKit          3D

  0  0  0  0  0  0  0  0  0  0999 V3000
M  V30 BEGIN CTAB
M  V30 COUNTS 50 50 0 0 0
M  V30 BEGIN ATOM
M  V30 1 C -2.073615 1.417175 1.612210 0
M  V30 2 N -2.856168 0.303525 1.072503 0
M  V30 3 C -3.283025 -0.573325 2.167084 0
M  V30 4 C -2.096437 -0.468405 0.072714 0
M  V30 5 C -1.841892 0.230486 -1.302784 0 CFG=1
M  V30 6 N -0.839295 -0.560535 -2.050622 0
M  V30 7 C 0.502742 -0.677603 -1.858419 0
M  V30 8 S 1.295265 -1.868911 -2.717175 0
M  V30 9 N 1.070200 0.188870 -0.973759 0
M  V30 10 C 2.468873 0.226240 -0.553464 0
M  V30 11 C 2.739790 -0.730590 0.609795 0
M  V30 12 C 4.173302 -0.655651 1.071023 0
M  V30 13 C 4.538221 0.175500 2.138244 0
M  V30 14 C 5.870399 0.255196 2.547261 0
M  V30 15 C 6.848416 -0.490809 1.891895 0
M  V30 16 C 6.496025 -1.316896 0.826363 0
M  V30 17 C 5.164877 -1.398482 0.415861 0
M  V30 18 C -3.114120 0.502901 -2.191833 0
M  V30 19 C -4.050911 1.535554 -1.531203 0
M  V30 20 C -2.675445 1.102881 -3.549924 0
M  V30 21 C -3.929006 -0.775127 -2.467416 0
M  V30 22 H -2.657444 1.970532 2.356718 0
M  V30 23 H -1.818042 2.139415 0.831183 0
M  V30 24 H -1.145580 1.078954 2.087374 0
M  V30 25 H -3.881230 -0.015925 2.896654 0
M  V30 26 H -3.925052 -1.376761 1.788930 0
M  V30 27 H -2.432669 -1.025932 2.690004 0
M  V30 28 H -2.615311 -1.413735 -0.131668 0
M  V30 29 H -1.135671 -0.768018 0.514140 0
M  V30 30 H -1.374575 1.203304 -1.117686 0
M  V30 31 H -1.199480 -1.283384 -2.663980 0
M  V30 32 H 0.478312 0.888975 -0.557797 0
M  V30 33 H 2.674634 1.259512 -0.250183 0
M  V30 34 H 3.117011 0.006406 -1.408375 0
M  V30 35 H 2.068641 -0.498045 1.447019 0
M  V30 36 H 2.503614 -1.764101 0.328301 0
M  V30 37 H 3.787960 0.765289 2.659457 0
M  V30 38 H 6.146009 0.899743 3.377805 0
M  V30 39 H 7.885377 -0.428421 2.211002 0
M  V30 40 H 7.257916 -1.898189 0.313557 0
M  V30 41 H 4.904311 -2.045822 -0.419559 0
M  V30 42 H -4.561954 1.127209 -0.655107 0
M  V30 43 H -3.501189 2.432460 -1.225903 0
M  V30 44 H -4.837886 1.854358 -2.225302 0
M  V30 45 H -2.088887 0.391764 -4.141270 0
M  V30 46 H -2.068761 2.003729 -3.403908 0
M  V30 47 H -3.542995 1.383076 -4.158869 0
M  V30 48 H -3.323399 -1.551561 -2.944852 0
M  V30 49 H -4.771061 -0.563881 -3.137284 0
M  V30 50 H -4.350796 -1.192946 -1.547697 0
M  V30 END ATOM
M  V30 BEGIN BOND
M  V30 1 1 1 2
M  V30 2 1 2 3
M  V30 3 1 2 4
M  V30 4 1 4 5
M  V30 5 1 5 6
M  V30 6 1 6 7
M  V30 7 2 7 8
M  V30 8 1 7 9
M  V30 9 1 9 10
M  V30 10 1 10 11
M  V30 11 1 11 12
M  V30 12 2 12 13
M  V30 13 1 13 14
M  V30 14 2 14 15
M  V30 15 1 15 16
M  V30 16 2 16 17
M  V30 17 1 5 18
M  V30 18 1 18 19
M  V30 19 1 18 20
M  V30 20 1 18 21
M  V30 21 1 17 12
M  V30 22 1 1 22
M  V30 23 1 1 23
M  V30 24 1 1 24
M  V30 25 1 3 25
M  V30 26 1 3 26
M  V30 27 1 3 27
M  V30 28 1 4 28
M  V30 29 1 4 29
M  V30 30 1 5 30 CFG=1
M  V30 31 1 6 31
M  V30 32 1 9 32
M  V30 33 1 10 33
M  V30 34 1 10 34
M  V30 35 1 11 35
M  V30 36 1 11 36
M  V30 37 1 13 37
M  V30 38 1 14 38
M  V30 39 1 15 39
M  V30 40 1 16 40
M  V30 41 1 17 41
M  V30 42 1 19 42
M  V30 43 1 19 43
M  V30 44 1 19 44
M  V30 45 1 20 45
M  V30 46 1 20 46
M  V30 47 1 20 47
M  V30 48 1 21 48
M  V30 49 1 21 49
M  V30 50 1 21 50
M  V30 END BOND
M  V30 END CTAB
M  END
>  <catalyst_id>  (1) 
FGNVPNFNFBYHNX_OAHLLOKOSA_NONE

>  <source_smiles>  (1) 
CN(C)C[C@@H](NC(=S)NCCc1ccccc1)C(C)(C)C

>  <axial_configuration>  (1) 
none

>  <inchikey>  (1) 
FGNVPNFNFBYHNX-OAHLLOKOSA-N

>  <build_source>  (1) 
smiles

>  <rdkit_version>  (1) 
2025.09.6

>  <random_seed>  (1) 
42

>  <generated_at>  (1) 
2026-05-19T12:37:08

$$$$
