catalyst56
     RDKit          3D

  0  0  0  0  0  0  0  0  0  0999 V3000
M  V30 BEGIN CTAB
M  V30 COUNTS 66 71 0 0 0
M  V30 BEGIN ATOM
M  V30 1 C -4.521297 -3.888227 0.163103 0
M  V30 2 C -3.616357 -2.916601 0.338993 0
M  V30 3 C -2.177162 -3.164191 0.725451 0 CFG=1
M  V30 4 C -1.183668 -2.538870 -0.289982 0
M  V30 5 N -0.227721 -1.604509 0.363076 0
M  V30 6 C 0.537029 -2.357374 1.383904 0
M  V30 7 C -0.379355 -3.005284 2.432670 0
M  V30 8 C -1.841538 -2.624430 2.138291 0 CFG=1
M  V30 9 C -1.901713 -1.085916 2.166338 0
M  V30 10 C -1.032680 -0.512856 1.021156 0 CFG=1
M  V30 11 C -0.152906 0.709870 1.494187 0 CFG=1
M  V30 12 N 0.934607 0.937349 0.531062 0
M  V30 13 C 2.028408 1.634925 0.757433 0
M  V30 14 C 3.207601 1.914953 0.106476 0
M  V30 15 N 3.848202 1.654259 -1.014639 0
M  V30 16 C 3.654369 0.598247 -1.931445 0
M  V30 17 C 4.010446 0.793430 -3.273082 0
M  V30 18 C 3.780550 -0.197717 -4.233998 0
M  V30 19 C 3.172983 -1.408544 -3.876833 0
M  V30 20 C 2.937282 -2.486937 -4.904976 0
M  V30 21 F 3.991682 -3.341850 -5.009396 0
M  V30 22 F 2.728954 -1.994868 -6.158388 0
M  V30 23 F 1.852374 -3.263338 -4.627231 0
M  V30 24 C 2.821377 -1.610980 -2.536477 0
M  V30 25 C 3.056486 -0.616497 -1.580802 0
M  V30 26 C 3.637995 2.840497 1.180831 0
M  V30 27 O 4.556434 3.586163 1.415261 0
M  V30 28 C 2.431334 2.441230 1.939527 0
M  V30 29 O 2.053842 2.676775 3.061401 0
M  V30 30 C -0.986205 1.970676 1.709189 0
M  V30 31 C -1.155050 2.401979 3.034138 0
M  V30 32 C -1.924598 3.518001 3.286576 0
M  V30 33 N -2.546741 4.226274 2.328051 0
M  V30 34 C -2.387956 3.841911 1.053187 0
M  V30 35 C -3.025705 4.597619 0.078733 0
M  V30 36 C -2.924720 4.294816 -1.278755 0
M  V30 37 C -2.163631 3.209384 -1.678792 0
M  V30 38 C -1.514763 2.432985 -0.718069 0
M  V30 39 C -1.612195 2.720087 0.668298 0
M  V30 40 H -4.272195 -4.936558 0.295865 0
M  V30 41 H -5.542961 -3.650385 -0.118759 0
M  V30 42 H -3.929381 -1.884908 0.187913 0
M  V30 43 H -2.001042 -4.249539 0.733602 0
M  V30 44 H -1.704575 -2.015113 -1.102072 0
M  V30 45 H -0.616274 -3.337901 -0.785596 0
M  V30 46 H 1.264696 -1.701207 1.875367 0
M  V30 47 H 1.139273 -3.130712 0.890377 0
M  V30 48 H -0.261401 -4.095283 2.413719 0
M  V30 49 H -0.094935 -2.667391 3.436391 0
M  V30 50 H -2.506500 -3.051362 2.897372 0
M  V30 51 H -2.935542 -0.738566 2.057220 0
M  V30 52 H -1.556491 -0.734011 3.146045 0
M  V30 53 H -1.718251 -0.140162 0.249813 0
M  V30 54 H 0.321924 0.420655 2.441879 0
M  V30 55 H 0.885932 0.260398 -0.235846 0
M  V30 56 H 4.662663 2.216739 -1.266131 0
M  V30 57 H 4.458798 1.732987 -3.588876 0
M  V30 58 H 4.069701 -0.013157 -5.267812 0
M  V30 59 H 2.359192 -2.546334 -2.223259 0
M  V30 60 H 2.794170 -0.825671 -0.547552 0
M  V30 61 H -0.679260 1.889173 3.864940 0
M  V30 62 H -2.065576 3.883912 4.299550 0
M  V30 63 H -3.619082 5.455214 0.388756 0
M  V30 64 H -3.435174 4.911489 -2.013249 0
M  V30 65 H -2.066691 2.965537 -2.733520 0
M  V30 66 H -0.917008 1.599719 -1.075960 0
M  V30 END ATOM
M  V30 BEGIN BOND
M  V30 1 2 1 2
M  V30 2 1 2 3
M  V30 3 1 3 4
M  V30 4 1 4 5
M  V30 5 1 5 6
M  V30 6 1 6 7
M  V30 7 1 7 8
M  V30 8 1 8 9
M  V30 9 1 9 10
M  V30 10 1 10 11
M  V30 11 1 11 12
M  V30 12 1 12 13
M  V30 13 2 13 14
M  V30 14 1 14 15
M  V30 15 1 15 16
M  V30 16 2 16 17
M  V30 17 1 17 18
M  V30 18 2 18 19
M  V30 19 1 19 20
M  V30 20 1 20 21
M  V30 21 1 20 22
M  V30 22 1 20 23
M  V30 23 1 19 24
M  V30 24 2 24 25
M  V30 25 1 14 26
M  V30 26 2 26 27
M  V30 27 1 26 28
M  V30 28 2 28 29
M  V30 29 1 11 30
M  V30 30 2 30 31
M  V30 31 1 31 32
M  V30 32 2 32 33
M  V30 33 1 33 34
M  V30 34 2 34 35
M  V30 35 1 35 36
M  V30 36 2 36 37
M  V30 37 1 37 38
M  V30 38 2 38 39
M  V30 39 1 8 3
M  V30 40 1 28 13
M  V30 41 1 39 30
M  V30 42 1 10 5
M  V30 43 1 25 16
M  V30 44 1 39 34
M  V30 45 1 1 40
M  V30 46 1 1 41
M  V30 47 1 2 42
M  V30 48 1 3 43 CFG=1
M  V30 49 1 4 44
M  V30 50 1 4 45
M  V30 51 1 6 46
M  V30 52 1 6 47
M  V30 53 1 7 48
M  V30 54 1 7 49
M  V30 55 1 8 50 CFG=1
M  V30 56 1 9 51
M  V30 57 1 9 52
M  V30 58 1 10 53 CFG=3
M  V30 59 1 11 54 CFG=1
M  V30 60 1 12 55
M  V30 61 1 15 56
M  V30 62 1 17 57
M  V30 63 1 18 58
M  V30 64 1 24 59
M  V30 65 1 25 60
M  V30 66 1 31 61
M  V30 67 1 32 62
M  V30 68 1 35 63
M  V30 69 1 36 64
M  V30 70 1 37 65
M  V30 71 1 38 66
M  V30 END BOND
M  V30 END CTAB
M  END
>  <catalyst_id>  (1) 
FOFLAWWAAXERNN_WBYKHBECSA_NONE

>  <source_smiles>  (1) 
C=C[C@H]1CN2CC[C@H]1C[C@H]2[C@@H](Nc1c(Nc2ccc(C(F)(F)F)cc2)c(=O)c1=O)c1ccnc2ccccc12

>  <axial_configuration>  (1) 
none

>  <inchikey>  (1) 
FOFLAWWAAXERNN-WBYKHBECSA-N

>  <build_source>  (1) 
smiles

>  <rdkit_version>  (1) 
2025.09.6

>  <random_seed>  (1) 
42

>  <generated_at>  (1) 
2026-05-19T12:37:11

$$$$
