catalyst84
     RDKit          3D

  0  0  0  0  0  0  0  0  0  0999 V3000
M  V30 BEGIN CTAB
M  V30 COUNTS 21 21 0 0 0
M  V30 BEGIN ATOM
M  V30 1 C -1.207175 -0.740388 1.208040 0
M  V30 2 C -1.184973 0.059288 -0.100345 0
M  V30 3 C -1.431724 1.543699 0.195303 0
M  V30 4 C 0.090584 -0.154824 -0.958646 0 CFG=2
M  V30 5 N 0.213577 -1.565302 -1.368680 0
M  V30 6 C 1.340092 0.290603 -0.282309 0
M  V30 7 N 1.921981 1.471654 -0.318415 0
M  V30 8 N 3.045103 1.366302 0.468639 0
M  V30 9 N 3.161397 0.145161 0.972612 0
M  V30 10 N 2.103730 -0.526032 0.501242 0
M  V30 11 H -1.066513 -1.810533 1.027364 0
M  V30 12 H -2.172993 -0.619096 1.711223 0
M  V30 13 H -0.431929 -0.403837 1.903624 0
M  V30 14 H -2.040979 -0.284982 -0.698403 0
M  V30 15 H -2.405944 1.681978 0.676908 0
M  V30 16 H -0.670658 1.958004 0.864406 0
M  V30 17 H -1.432879 2.130650 -0.729130 0
M  V30 18 H -0.021896 0.436011 -1.877282 0
M  V30 19 H -0.669464 -1.858452 -1.790420 0
M  V30 20 H 0.894778 -1.615913 -2.130129 0
M  V30 21 H 1.965884 -1.503992 0.724397 0
M  V30 END ATOM
M  V30 BEGIN BOND
M  V30 1 1 1 2
M  V30 2 1 2 3
M  V30 3 1 2 4
M  V30 4 1 4 5
M  V30 5 1 4 6
M  V30 6 2 6 7
M  V30 7 1 7 8
M  V30 8 2 8 9
M  V30 9 1 9 10
M  V30 10 1 10 6
M  V30 11 1 1 11
M  V30 12 1 1 12
M  V30 13 1 1 13
M  V30 14 1 2 14
M  V30 15 1 3 15
M  V30 16 1 3 16
M  V30 17 1 3 17
M  V30 18 1 4 18 CFG=3
M  V30 19 1 5 19
M  V30 20 1 5 20
M  V30 21 1 10 21
M  V30 END BOND
M  V30 END CTAB
M  END
>  <catalyst_id>  (1) 
GSAPQYNJBHTIOJ_BYPYZUCNSA_NONE

>  <source_smiles>  (1) 
CC(C)[C@H](N)c1nnn[nH]1

>  <axial_configuration>  (1) 
none

>  <inchikey>  (1) 
GSAPQYNJBHTIOJ-BYPYZUCNSA-N

>  <build_source>  (1) 
smiles

>  <rdkit_version>  (1) 
2025.09.6

>  <random_seed>  (1) 
42

>  <generated_at>  (1) 
2026-05-19T12:30:03

$$$$
