catalyst193
     RDKit          3D

  0  0  0  0  0  0  0  0  0  0999 V3000
M  V30 BEGIN CTAB
M  V30 COUNTS 77 79 0 0 0
M  V30 BEGIN ATOM
M  V30 1 C 0.911909 5.347659 -1.897358 0
M  V30 2 C 0.894631 3.853777 -2.195694 0
M  V30 3 C 0.804641 2.980430 -0.924952 0 CFG=2
M  V30 4 C 2.079238 3.100427 -0.077231 0
M  V30 5 C 0.491686 1.486543 -1.234332 0 CFG=1
M  V30 6 C -0.929120 1.280701 -1.791311 0
M  V30 7 P -1.979520 0.250125 -0.707923 0 CHG=1
M  V30 8 C -3.543540 0.196609 -1.621817 0
M  V30 9 C -4.635393 -0.665047 -1.040597 0
M  V30 10 C -4.728770 -2.017888 -1.394777 0
M  V30 11 C -5.717454 -2.831151 -0.839112 0
M  V30 12 C -6.622059 -2.301256 0.077694 0
M  V30 13 C -6.536402 -0.958833 0.440140 0
M  V30 14 C -5.547026 -0.144737 -0.114684 0
M  V30 15 C -1.353432 -1.399392 -0.578999 0
M  V30 16 C -0.514600 -1.943757 -1.558111 0
M  V30 17 C -0.026218 -3.247194 -1.442667 0
M  V30 18 C -0.392853 -4.036439 -0.356857 0
M  V30 19 C -1.257429 -3.525493 0.605999 0
M  V30 20 C -1.738432 -2.220278 0.489679 0
M  V30 21 C -2.120982 1.133013 0.821987 0
M  V30 22 C -1.334591 0.796926 1.931936 0
M  V30 23 C -1.415554 1.526170 3.119972 0
M  V30 24 C -2.276495 2.615154 3.211893 0
M  V30 25 C -3.047814 2.978986 2.112543 0
M  V30 26 C -2.963244 2.247647 0.925751 0
M  V30 27 N 1.478206 0.904467 -2.155522 0
M  V30 28 C 2.569365 0.126273 -1.861902 0
M  V30 29 S 3.745654 0.035393 -3.043613 0
M  V30 30 N 2.513867 -0.519795 -0.654862 0
M  V30 31 C 3.509955 -1.174128 0.099028 0
M  V30 32 C 3.077071 -2.102179 1.052620 0
M  V30 33 C 3.998353 -2.777003 1.858805 0
M  V30 34 C 5.364774 -2.525898 1.738669 0
M  V30 35 O 6.158191 -3.251050 2.583227 0
M  V30 36 C 7.562334 -3.058275 2.466332 0
M  V30 37 C 5.798716 -1.581979 0.809922 0
M  V30 38 C 4.874346 -0.905273 0.000452 0
M  V30 39 Br 0.000000 0.000000 0.000000 0 CHG=-1
M  V30 40 H 0.885355 5.916221 -2.832665 0
M  V30 41 H 1.817823 5.641147 -1.359559 0
M  V30 42 H 0.042273 5.639208 -1.300116 0
M  V30 43 H 0.039768 3.653810 -2.850871 0
M  V30 44 H 1.795141 3.602331 -2.768370 0
M  V30 45 H -0.020783 3.360492 -0.307498 0
M  V30 46 H 2.201613 4.117038 0.308881 0
M  V30 47 H 2.974351 2.851340 -0.655755 0
M  V30 48 H 2.036288 2.432265 0.789668 0
M  V30 49 H 0.561090 0.956083 -0.282804 0
M  V30 50 H -0.913094 0.829410 -2.789475 0
M  V30 51 H -1.456215 2.235839 -1.890706 0
M  V30 52 H -3.321443 -0.160868 -2.635682 0
M  V30 53 H -3.921366 1.216034 -1.761251 0
M  V30 54 H -4.021499 -2.452584 -2.098365 0
M  V30 55 H -5.776358 -3.879605 -1.118784 0
M  V30 56 H -7.390731 -2.934594 0.511963 0
M  V30 57 H -7.238687 -0.544732 1.158794 0
M  V30 58 H -5.497489 0.897992 0.186059 0
M  V30 59 H -0.225666 -1.362425 -2.429371 0
M  V30 60 H 0.638020 -3.646566 -2.205731 0
M  V30 61 H -0.017052 -5.052473 -0.269881 0
M  V30 62 H -1.568411 -4.144411 1.443677 0
M  V30 63 H -2.437708 -1.848373 1.236873 0
M  V30 64 H -0.636026 -0.034363 1.881623 0
M  V30 65 H -0.800662 1.245412 3.971314 0
M  V30 66 H -2.339514 3.183862 4.135676 0
M  V30 67 H -3.711999 3.837055 2.175983 0
M  V30 68 H -3.559326 2.568533 0.076270 0
M  V30 69 H 1.559845 1.349873 -3.063627 0
M  V30 70 H 1.569708 -0.748525 -0.371157 0
M  V30 71 H 2.019983 -2.326985 1.172408 0
M  V30 72 H 3.645896 -3.505036 2.585068 0
M  V30 73 H 8.051727 -3.722425 3.185259 0
M  V30 74 H 7.917485 -3.330167 1.466748 0
M  V30 75 H 7.841263 -2.030210 2.719874 0
M  V30 76 H 6.848538 -1.335635 0.691029 0
M  V30 77 H 5.255853 -0.147225 -0.674785 0
M  V30 END ATOM
M  V30 BEGIN BOND
M  V30 1 1 1 2
M  V30 2 1 2 3
M  V30 3 1 3 4
M  V30 4 1 3 5
M  V30 5 1 5 6
M  V30 6 1 6 7
M  V30 7 1 7 8
M  V30 8 1 8 9
M  V30 9 2 9 10
M  V30 10 1 10 11
M  V30 11 2 11 12
M  V30 12 1 12 13
M  V30 13 2 13 14
M  V30 14 1 7 15
M  V30 15 2 15 16
M  V30 16 1 16 17
M  V30 17 2 17 18
M  V30 18 1 18 19
M  V30 19 2 19 20
M  V30 20 1 7 21
M  V30 21 2 21 22
M  V30 22 1 22 23
M  V30 23 2 23 24
M  V30 24 1 24 25
M  V30 25 2 25 26
M  V30 26 1 5 27
M  V30 27 1 27 28
M  V30 28 2 28 29
M  V30 29 1 28 30
M  V30 30 1 30 31
M  V30 31 2 31 32
M  V30 32 1 32 33
M  V30 33 2 33 34
M  V30 34 1 34 35
M  V30 35 1 35 36
M  V30 36 1 34 37
M  V30 37 2 37 38
M  V30 38 1 14 9
M  V30 39 1 20 15
M  V30 40 1 26 21
M  V30 41 1 38 31
M  V30 42 1 1 40
M  V30 43 1 1 41
M  V30 44 1 1 42
M  V30 45 1 2 43
M  V30 46 1 2 44
M  V30 47 1 3 45 CFG=1
M  V30 48 1 4 46
M  V30 49 1 4 47
M  V30 50 1 4 48
M  V30 51 1 5 49 CFG=1
M  V30 52 1 6 50
M  V30 53 1 6 51
M  V30 54 1 8 52
M  V30 55 1 8 53
M  V30 56 1 10 54
M  V30 57 1 11 55
M  V30 58 1 12 56
M  V30 59 1 13 57
M  V30 60 1 14 58
M  V30 61 1 16 59
M  V30 62 1 17 60
M  V30 63 1 18 61
M  V30 64 1 19 62
M  V30 65 1 20 63
M  V30 66 1 22 64
M  V30 67 1 23 65
M  V30 68 1 24 66
M  V30 69 1 25 67
M  V30 70 1 26 68
M  V30 71 1 27 69
M  V30 72 1 30 70
M  V30 73 1 32 71
M  V30 74 1 33 72
M  V30 75 1 36 73
M  V30 76 1 36 74
M  V30 77 1 36 75
M  V30 78 1 37 76
M  V30 79 1 38 77
M  V30 END BOND
M  V30 END CTAB
M  END
>  <catalyst_id>  (1) 
LXYWZKJMLROSQB_FBJKBAKBSA_NONE

>  <source_smiles>  (1) 
CC[C@H](C)[C@@H](C[P+](Cc1ccccc1)(c1ccccc1)c1ccccc1)NC(=S)Nc1ccc(OC)cc1.[Br-]

>  <axial_configuration>  (1) 
none

>  <inchikey>  (1) 
LXYWZKJMLROSQB-FBJKBAKBSA-N

>  <build_source>  (1) 
smiles

>  <rdkit_version>  (1) 
2025.09.6

>  <random_seed>  (1) 
42

>  <generated_at>  (1) 
2026-05-19T12:37:02

$$$$
