catalyst11
     RDKit          3D

  0  0  0  0  0  0  0  0  0  0999 V3000
M  V30 BEGIN CTAB
M  V30 COUNTS 17 16 0 0 0
M  V30 BEGIN ATOM
M  V30 1 C -1.527414 1.247469 0.015638 0
M  V30 2 C -0.883593 -0.050151 0.481551 0 CFG=1
M  V30 3 O -1.889463 -1.074363 0.436053 0
M  V30 4 C 0.313970 -0.486325 -0.384069 0 CFG=2
M  V30 5 N 0.632928 -1.916954 -0.065838 0
M  V30 6 C 1.535145 0.385243 -0.100257 0
M  V30 7 O 2.442272 0.119680 0.674415 0
M  V30 8 O 1.556693 1.526318 -0.813240 0
M  V30 9 H -0.848544 2.098355 0.115816 0
M  V30 10 H -1.846817 1.172361 -1.029576 0
M  V30 11 H -2.428016 1.457717 0.603137 0
M  V30 12 H -0.580788 0.055174 1.530383 0
M  V30 13 H -1.385957 -1.911215 0.337258 0
M  V30 14 H 0.071634 -0.449638 -1.451709 0
M  V30 15 H 1.399469 -2.209077 -0.676794 0
M  V30 16 H 1.048678 -1.934178 0.872448 0
M  V30 17 H 2.389803 1.969584 -0.545216 0
M  V30 END ATOM
M  V30 BEGIN BOND
M  V30 1 1 1 2
M  V30 2 1 2 3
M  V30 3 1 2 4
M  V30 4 1 4 5
M  V30 5 1 4 6
M  V30 6 2 6 7
M  V30 7 1 6 8
M  V30 8 1 1 9
M  V30 9 1 1 10
M  V30 10 1 1 11
M  V30 11 1 2 12 CFG=1
M  V30 12 1 3 13
M  V30 13 1 4 14 CFG=3
M  V30 14 1 5 15
M  V30 15 1 5 16
M  V30 16 1 8 17
M  V30 END BOND
M  V30 END CTAB
M  END
>  <catalyst_id>  (1) 
AYFVYJQAPQTCCC_GBXIJSLDSA_NONE

>  <source_smiles>  (1) 
C[C@@H](O)[C@H](N)C(=O)O

>  <axial_configuration>  (1) 
none

>  <inchikey>  (1) 
AYFVYJQAPQTCCC-GBXIJSLDSA-N

>  <build_source>  (1) 
smiles

>  <rdkit_version>  (1) 
2025.09.6

>  <random_seed>  (1) 
42

>  <generated_at>  (1) 
2026-05-19T12:30:03

$$$$
