catalyst376
     RDKit          3D

  0  0  0  0  0  0  0  0  0  0999 V3000
M  V30 BEGIN CTAB
M  V30 COUNTS 73 75 0 0 0
M  V30 BEGIN ATOM
M  V30 1 C 2.205004 -1.688356 2.690811 0
M  V30 2 C 2.021417 -0.963055 1.362835 0
M  V30 3 C 1.114793 -1.728576 0.372798 0 CFG=2
M  V30 4 C 1.801834 -3.015623 -0.111553 0
M  V30 5 C 0.661757 -0.880621 -0.852479 0 CFG=1
M  V30 6 C -0.345005 0.227460 -0.493088 0
M  V30 7 P -2.010466 -0.295604 -0.011054 0 CHG=1
M  V30 8 C -3.031811 1.165377 -0.392154 0
M  V30 9 C -2.730013 2.425422 0.381743 0
M  V30 10 C -1.839941 3.379377 -0.128913 0
M  V30 11 C -1.541212 4.531331 0.600397 0
M  V30 12 C -2.127097 4.739629 1.847242 0
M  V30 13 C -3.012732 3.796831 2.364785 0
M  V30 14 C -3.313625 2.645639 1.635519 0
M  V30 15 C -2.203573 -0.626161 1.717840 0
M  V30 16 C -1.337217 -0.087028 2.674360 0
M  V30 17 C -1.524487 -0.334028 4.036473 0
M  V30 18 C -2.594358 -1.114248 4.464205 0
M  V30 19 C -3.484650 -1.634111 3.530151 0
M  V30 20 C -3.294755 -1.382445 2.170095 0
M  V30 21 C -2.498240 -1.654452 -1.046445 0
M  V30 22 C -2.327922 -2.978593 -0.616284 0
M  V30 23 C -2.678686 -4.053726 -1.434800 0
M  V30 24 C -3.195836 -3.820750 -2.705002 0
M  V30 25 C -3.355533 -2.513724 -3.155612 0
M  V30 26 C -3.005707 -1.439841 -2.333444 0
M  V30 27 N 1.818800 -0.296376 -1.557696 0
M  V30 28 C 1.902640 0.080045 -2.867927 0
M  V30 29 S 0.729986 -0.147235 -4.037494 0
M  V30 30 N 3.083576 0.644747 -3.266563 0
M  V30 31 C 4.100769 1.296316 -2.540252 0
M  V30 32 C 3.943263 1.776480 -1.235034 0
M  V30 33 C 4.997126 2.430921 -0.590280 0
M  V30 34 C 6.200412 2.619305 -1.257175 0
M  V30 35 F 7.207734 3.248402 -0.638739 0
M  V30 36 C 6.366763 2.176554 -2.562279 0
M  V30 37 C 5.313099 1.523781 -3.206725 0
M  V30 38 Br 0.000000 0.000000 0.000000 0 CHG=-1
M  V30 39 H 2.763752 -1.055633 3.388095 0
M  V30 40 H 1.240611 -1.926384 3.149236 0
M  V30 41 H 2.768101 -2.617691 2.566914 0
M  V30 42 H 1.603518 0.024947 1.574777 0
M  V30 43 H 3.012966 -0.793221 0.928039 0
M  V30 44 H 0.213657 -2.042818 0.910250 0
M  V30 45 H 1.984696 -3.704296 0.718800 0
M  V30 46 H 1.171033 -3.545836 -0.833298 0
M  V30 47 H 2.762201 -2.803375 -0.592602 0
M  V30 48 H 0.174749 -1.559287 -1.559331 0
M  V30 49 H -0.494986 0.846941 -1.384711 0
M  V30 50 H 0.072456 0.914124 0.248386 0
M  V30 51 H -2.940934 1.391956 -1.460503 0
M  V30 52 H -4.083152 0.893936 -0.234665 0
M  V30 53 H -1.373405 3.233378 -1.100746 0
M  V30 54 H -0.851913 5.266812 0.194173 0
M  V30 55 H -1.894821 5.636462 2.415016 0
M  V30 56 H -3.469227 3.954702 3.338265 0
M  V30 57 H -4.000536 1.915073 2.058255 0
M  V30 58 H -0.518836 0.559181 2.374643 0
M  V30 59 H -0.839113 0.094495 4.763000 0
M  V30 60 H -2.741827 -1.304536 5.523646 0
M  V30 61 H -4.332276 -2.230044 3.857991 0
M  V30 62 H -4.015063 -1.779772 1.457874 0
M  V30 63 H -1.910710 -3.186364 0.366210 0
M  V30 64 H -2.541153 -5.072147 -1.081507 0
M  V30 65 H -3.464230 -4.655103 -3.347015 0
M  V30 66 H -3.742823 -2.326679 -4.153923 0
M  V30 67 H -3.118671 -0.433744 -2.726150 0
M  V30 68 H 2.721929 -0.440108 -1.127828 0
M  V30 69 H 3.184942 0.658312 -4.276610 0
M  V30 70 H 2.995242 1.702223 -0.710844 0
M  V30 71 H 4.878388 2.808725 0.420399 0
M  V30 72 H 7.311234 2.342611 -3.070496 0
M  V30 73 H 5.458093 1.180091 -4.228165 0
M  V30 END ATOM
M  V30 BEGIN BOND
M  V30 1 1 1 2
M  V30 2 1 2 3
M  V30 3 1 3 4
M  V30 4 1 3 5
M  V30 5 1 5 6
M  V30 6 1 6 7
M  V30 7 1 7 8
M  V30 8 1 8 9
M  V30 9 2 9 10
M  V30 10 1 10 11
M  V30 11 2 11 12
M  V30 12 1 12 13
M  V30 13 2 13 14
M  V30 14 1 7 15
M  V30 15 2 15 16
M  V30 16 1 16 17
M  V30 17 2 17 18
M  V30 18 1 18 19
M  V30 19 2 19 20
M  V30 20 1 7 21
M  V30 21 2 21 22
M  V30 22 1 22 23
M  V30 23 2 23 24
M  V30 24 1 24 25
M  V30 25 2 25 26
M  V30 26 1 5 27
M  V30 27 1 27 28
M  V30 28 2 28 29
M  V30 29 1 28 30
M  V30 30 1 30 31
M  V30 31 2 31 32
M  V30 32 1 32 33
M  V30 33 2 33 34
M  V30 34 1 34 35
M  V30 35 1 34 36
M  V30 36 2 36 37
M  V30 37 1 14 9
M  V30 38 1 20 15
M  V30 39 1 26 21
M  V30 40 1 37 31
M  V30 41 1 1 39
M  V30 42 1 1 40
M  V30 43 1 1 41
M  V30 44 1 2 42
M  V30 45 1 2 43
M  V30 46 1 3 44 CFG=1
M  V30 47 1 4 45
M  V30 48 1 4 46
M  V30 49 1 4 47
M  V30 50 1 5 48 CFG=3
M  V30 51 1 6 49
M  V30 52 1 6 50
M  V30 53 1 8 51
M  V30 54 1 8 52
M  V30 55 1 10 53
M  V30 56 1 11 54
M  V30 57 1 12 55
M  V30 58 1 13 56
M  V30 59 1 14 57
M  V30 60 1 16 58
M  V30 61 1 17 59
M  V30 62 1 18 60
M  V30 63 1 19 61
M  V30 64 1 20 62
M  V30 65 1 22 63
M  V30 66 1 23 64
M  V30 67 1 24 65
M  V30 68 1 25 66
M  V30 69 1 26 67
M  V30 70 1 27 68
M  V30 71 1 30 69
M  V30 72 1 32 70
M  V30 73 1 33 71
M  V30 74 1 36 72
M  V30 75 1 37 73
M  V30 END BOND
M  V30 END CTAB
M  END
>  <catalyst_id>  (1) 
VZTKYRJRWNZBJW_FEKQMUGNSA_NONE

>  <source_smiles>  (1) 
CC[C@H](C)[C@@H](C[P+](Cc1ccccc1)(c1ccccc1)c1ccccc1)NC(=S)Nc1ccc(F)cc1.[Br-]

>  <axial_configuration>  (1) 
none

>  <inchikey>  (1) 
VZTKYRJRWNZBJW-FEKQMUGNSA-N

>  <build_source>  (1) 
smiles

>  <rdkit_version>  (1) 
2025.09.6

>  <random_seed>  (1) 
42

>  <generated_at>  (1) 
2026-05-19T12:37:02

$$$$
