catalyst147
     RDKit          3D

  0  0  0  0  0  0  0  0  0  0999 V3000
M  V30 BEGIN CTAB
M  V30 COUNTS 83 85 0 0 0
M  V30 BEGIN ATOM
M  V30 1 C -3.625423 -2.802081 -0.847626 0
M  V30 2 C -2.551996 -3.831909 -1.208440 0
M  V30 3 C -2.839877 -4.407612 -2.598839 0
M  V30 4 C -1.120492 -3.251441 -1.059389 0 CFG=1
M  V30 5 C -0.044735 -4.355347 -1.209972 0
M  V30 6 O 1.263180 -3.843656 -0.899078 0
M  V30 7 C 1.586106 -3.894217 0.436335 0
M  V30 8 C 1.572269 -5.095577 1.147724 0
M  V30 9 C 1.931245 -5.109153 2.495350 0
M  V30 10 C 2.319852 -3.925598 3.138517 0
M  V30 11 C 2.724299 -3.930179 4.593566 0
M  V30 12 F 4.074260 -3.902114 4.759836 0
M  V30 13 F 2.232299 -2.866468 5.285827 0
M  V30 14 F 2.290038 -5.036354 5.262696 0
M  V30 15 C 2.373826 -2.729761 2.398982 0
M  V30 16 C 2.024162 -2.704706 1.046354 0
M  V30 17 N 2.079695 -1.547449 0.236690 0
M  V30 18 C 2.544860 -0.289540 0.576602 0
M  V30 19 O 2.982142 0.012826 1.679407 0
M  V30 20 N 2.447113 0.581183 -0.498259 0
M  V30 21 C 2.830038 1.938794 -0.545253 0
M  V30 22 C 2.551632 2.639496 -1.725232 0
M  V30 23 C 2.867618 4.001686 -1.860647 0
M  V30 24 C 2.506530 4.735529 -3.129071 0
M  V30 25 F 3.173048 5.913021 -3.280285 0
M  V30 26 F 1.181478 5.044850 -3.181035 0
M  V30 27 F 2.768242 4.011414 -4.251606 0
M  V30 28 C 3.478994 4.664460 -0.787941 0
M  V30 29 C 3.788640 3.977316 0.395310 0
M  V30 30 C 4.440830 4.684899 1.560006 0
M  V30 31 F 5.448412 3.965041 2.124388 0
M  V30 32 F 3.560129 4.957023 2.560961 0
M  V30 33 F 4.991965 5.883073 1.214537 0
M  V30 34 C 3.454308 2.615302 0.504146 0
M  V30 35 N -0.864984 -2.172332 -2.031064 0
M  V30 36 C -0.805977 -0.825174 -1.880637 0
M  V30 37 S -0.292396 0.051782 -3.202774 0
M  V30 38 N -1.113018 -0.328287 -0.653029 0
M  V30 39 C -1.163762 1.095720 -0.245105 0 CFG=2
M  V30 40 C -0.964663 1.217841 1.276032 0
M  V30 41 C -2.165849 0.722256 2.080686 0
M  V30 42 C -3.477281 1.338149 1.605404 0
M  V30 43 C -3.656257 1.183380 0.096368 0
M  V30 44 C -2.486951 1.811000 -0.706697 0 CFG=1
M  V30 45 N -2.444996 3.299448 -0.552725 0
M  V30 46 C -3.684439 3.938450 -1.015887 0
M  V30 47 C -1.321406 3.899661 -1.285582 0
M  V30 48 H -3.638481 -1.966636 -1.554627 0
M  V30 49 H -4.619874 -3.261409 -0.859300 0
M  V30 50 H -3.459962 -2.404019 0.158663 0
M  V30 51 H -2.649992 -4.654997 -0.487630 0
M  V30 52 H -2.147096 -5.216244 -2.849151 0
M  V30 53 H -3.851682 -4.826229 -2.638401 0
M  V30 54 H -2.768640 -3.641042 -3.377215 0
M  V30 55 H -1.019639 -2.834469 -0.052275 0
M  V30 56 H 0.008914 -4.690119 -2.252011 0
M  V30 57 H -0.303739 -5.235342 -0.611549 0
M  V30 58 H 1.312801 -6.031458 0.661539 0
M  V30 59 H 1.917673 -6.051326 3.042304 0
M  V30 60 H 2.700118 -1.828637 2.912639 0
M  V30 61 H 1.797224 -1.703878 -0.722624 0
M  V30 62 H 1.964133 0.227509 -1.313152 0
M  V30 63 H 2.072330 2.132680 -2.561649 0
M  V30 64 H 3.719715 5.725440 -0.874153 0
M  V30 65 H 3.697974 2.108170 1.434918 0
M  V30 66 H -0.644999 -2.469163 -2.977062 0
M  V30 67 H -1.614795 -0.951377 -0.040706 0
M  V30 68 H -0.302918 1.560479 -0.729146 0
M  V30 69 H -0.777643 2.268117 1.531933 0
M  V30 70 H -0.075088 0.658310 1.586935 0
M  V30 71 H -2.015634 0.952354 3.141799 0
M  V30 72 H -2.232386 -0.369985 2.008083 0
M  V30 73 H -3.507112 2.398897 1.880799 0
M  V30 74 H -4.313497 0.855560 2.124270 0
M  V30 75 H -4.623347 1.596696 -0.206787 0
M  V30 76 H -3.726603 0.116077 -0.143266 0
M  V30 77 H -2.659902 1.582116 -1.766242 0
M  V30 78 H -3.601019 5.030881 -0.967462 0
M  V30 79 H -3.929989 3.661526 -2.047285 0
M  V30 80 H -4.530774 3.691078 -0.369010 0
M  V30 81 H -1.308314 3.600237 -2.339388 0
M  V30 82 H -0.363762 3.640957 -0.826232 0
M  V30 83 H -1.366707 4.994600 -1.243752 0
M  V30 END ATOM
M  V30 BEGIN BOND
M  V30 1 1 1 2
M  V30 2 1 2 3
M  V30 3 1 2 4
M  V30 4 1 4 5
M  V30 5 1 5 6
M  V30 6 1 6 7
M  V30 7 2 7 8
M  V30 8 1 8 9
M  V30 9 2 9 10
M  V30 10 1 10 11
M  V30 11 1 11 12
M  V30 12 1 11 13
M  V30 13 1 11 14
M  V30 14 1 10 15
M  V30 15 2 15 16
M  V30 16 1 16 17
M  V30 17 1 17 18
M  V30 18 2 18 19
M  V30 19 1 18 20
M  V30 20 1 20 21
M  V30 21 2 21 22
M  V30 22 1 22 23
M  V30 23 1 23 24
M  V30 24 1 24 25
M  V30 25 1 24 26
M  V30 26 1 24 27
M  V30 27 2 23 28
M  V30 28 1 28 29
M  V30 29 1 29 30
M  V30 30 1 30 31
M  V30 31 1 30 32
M  V30 32 1 30 33
M  V30 33 2 29 34
M  V30 34 1 4 35
M  V30 35 1 35 36
M  V30 36 2 36 37
M  V30 37 1 36 38
M  V30 38 1 38 39
M  V30 39 1 39 40
M  V30 40 1 40 41
M  V30 41 1 41 42
M  V30 42 1 42 43
M  V30 43 1 43 44
M  V30 44 1 44 45
M  V30 45 1 45 46
M  V30 46 1 45 47
M  V30 47 1 16 7
M  V30 48 1 34 21
M  V30 49 1 44 39
M  V30 50 1 1 48
M  V30 51 1 1 49
M  V30 52 1 1 50
M  V30 53 1 2 51
M  V30 54 1 3 52
M  V30 55 1 3 53
M  V30 56 1 3 54
M  V30 57 1 4 55 CFG=1
M  V30 58 1 5 56
M  V30 59 1 5 57
M  V30 60 1 8 58
M  V30 61 1 9 59
M  V30 62 1 15 60
M  V30 63 1 17 61
M  V30 64 1 20 62
M  V30 65 1 22 63
M  V30 66 1 28 64
M  V30 67 1 34 65
M  V30 68 1 35 66
M  V30 69 1 38 67
M  V30 70 1 39 68 CFG=3
M  V30 71 1 40 69
M  V30 72 1 40 70
M  V30 73 1 41 71
M  V30 74 1 41 72
M  V30 75 1 42 73
M  V30 76 1 42 74
M  V30 77 1 43 75
M  V30 78 1 43 76
M  V30 79 1 44 77 CFG=3
M  V30 80 1 46 78
M  V30 81 1 46 79
M  V30 82 1 46 80
M  V30 83 1 47 81
M  V30 84 1 47 82
M  V30 85 1 47 83
M  V30 END BOND
M  V30 END CTAB
M  END
>  <catalyst_id>  (1) 
KCDKHNJEKLIQLY_GMKZXUHWSA_NONE

>  <source_smiles>  (1) 
CC(C)[C@@H](COc1ccc(C(F)(F)F)cc1NC(=O)Nc1cc(C(F)(F)F)cc(C(F)(F)F)c1)NC(=S)N[C@@H]1CCCC[C@H]1N(C)C

>  <axial_configuration>  (1) 
none

>  <inchikey>  (1) 
KCDKHNJEKLIQLY-GMKZXUHWSA-N

>  <build_source>  (1) 
smiles

>  <rdkit_version>  (1) 
2025.09.6

>  <random_seed>  (1) 
42

>  <generated_at>  (1) 
2026-05-19T12:32:34

$$$$
