catalyst324
     RDKit          3D

  0  0  0  0  0  0  0  0  0  0999 V3000
M  V30 BEGIN CTAB
M  V30 COUNTS 100 105 0 0 0
M  V30 BEGIN ATOM
M  V30 1 C 5.927347 3.505236 -0.081630 0
M  V30 2 C 6.563624 3.311692 -1.446905 0
M  V30 3 C 5.778010 2.497147 -2.488140 0 CFG=1
M  V30 4 C 5.659131 0.995423 -2.145602 0
M  V30 5 N 4.316839 0.464071 -2.492919 0
M  V30 6 C 4.030768 0.775929 -3.913790 0
M  V30 7 C 3.999313 2.290019 -4.182580 0
M  V30 8 C 4.383725 3.037772 -2.887544 0 CFG=1
M  V30 9 C 3.286220 2.662349 -1.874813 0
M  V30 10 C 3.320810 1.143145 -1.592223 0 CFG=1
M  V30 11 C 1.891959 0.469393 -1.638672 0 CFG=1
M  V30 12 N 2.069331 -0.986222 -1.738019 0
M  V30 13 C 1.139751 -1.891227 -1.968926 0
M  V30 14 C -0.220220 -2.072443 -1.901702 0
M  V30 15 N -1.290373 -1.380547 -1.557611 0
M  V30 16 C -2.563863 -2.025685 -1.217422 0 CFG=1
M  V30 17 O -2.403250 -2.838160 -0.055355 0
M  V30 18 C -2.152811 -2.098930 1.146584 0 CFG=2
M  V30 19 C -1.856975 -3.092580 2.281769 0
M  V30 20 O -3.048875 -3.803120 2.668528 0
M  V30 21 C -3.500616 -3.597146 3.935181 0
M  V30 22 C -4.755786 -4.381873 4.163237 0
M  V30 23 O -2.980405 -2.869307 4.769472 0
M  V30 24 C -3.335457 -1.174110 1.457441 0 CFG=1
M  V30 25 O -3.008988 -0.397194 2.628250 0
M  V30 26 C -4.021386 -0.146899 3.501228 0
M  V30 27 C -3.513021 0.667254 4.650604 0
M  V30 28 O -5.178575 -0.521335 3.375301 0
M  V30 29 C -3.576213 -0.228127 0.272014 0 CFG=2
M  V30 30 O -4.805892 0.501572 0.519935 0
M  V30 31 C -4.852690 1.798460 0.116276 0
M  V30 32 C -6.177537 2.395046 0.480532 0
M  V30 33 O -3.960182 2.401677 -0.462977 0
M  V30 34 C -3.716444 -1.008605 -1.041978 0 CFG=1
M  V30 35 O -3.752419 -0.062883 -2.136384 0
M  V30 36 C -4.266248 -0.531860 -3.302517 0
M  V30 37 C -4.221066 0.534752 -4.351968 0
M  V30 38 O -4.705318 -1.658841 -3.472848 0
M  V30 39 C -0.109716 -3.481347 -2.372909 0
M  V30 40 O -0.822931 -4.417885 -2.637077 0
M  V30 41 C 1.353947 -3.286952 -2.439858 0
M  V30 42 O 2.266978 -4.003772 -2.768257 0
M  V30 43 C 1.035426 0.908303 -0.452581 0
M  V30 44 C 0.068763 1.897421 -0.704154 0
M  V30 45 C -0.708705 2.360954 0.335755 0
M  V30 46 N -0.611211 1.900670 1.595168 0
M  V30 47 C 0.310710 0.965382 1.861708 0
M  V30 48 C 0.392345 0.511794 3.169638 0
M  V30 49 C 1.308756 -0.465681 3.564357 0
M  V30 50 C 2.179714 -1.001861 2.629705 0
M  V30 51 O 3.127371 -1.956807 2.865769 0
M  V30 52 C 3.202270 -2.479538 4.186658 0
M  V30 53 C 2.115129 -0.550564 1.308026 0
M  V30 54 C 1.178629 0.426736 0.883098 0
M  V30 55 H 5.564138 2.566570 0.343969 0
M  V30 56 H 5.102585 4.220865 -0.129563 0
M  V30 57 H 6.664752 3.921289 0.613451 0
M  V30 58 H 7.538645 2.828313 -1.302724 0
M  V30 59 H 6.777224 4.303086 -1.866145 0
M  V30 60 H 6.400297 2.554743 -3.395209 0
M  V30 61 H 5.875420 0.794249 -1.089965 0
M  V30 62 H 6.420335 0.433263 -2.702277 0
M  V30 63 H 4.789825 0.301879 -4.549061 0
M  V30 64 H 3.080032 0.323599 -4.218766 0
M  V30 65 H 4.694799 2.542507 -4.991868 0
M  V30 66 H 2.998993 2.593033 -4.514989 0
M  V30 67 H 4.405679 4.118124 -3.063890 0
M  V30 68 H 2.316197 2.965562 -2.286746 0
M  V30 69 H 3.399236 3.214903 -0.939662 0
M  V30 70 H 3.693494 1.006986 -0.567617 0
M  V30 71 H 1.400385 0.783146 -2.569889 0
M  V30 72 H 3.038692 -1.179790 -2.033262 0
M  V30 73 H -1.180572 -0.448629 -1.167103 0
M  V30 74 H -2.831566 -2.697650 -2.040047 0
M  V30 75 H -1.237021 -1.512047 1.015507 0
M  V30 76 H -1.145799 -3.849324 1.932249 0
M  V30 77 H -1.392191 -2.572798 3.126494 0
M  V30 78 H -5.086009 -4.244660 5.196889 0
M  V30 79 H -4.564156 -5.445314 3.999346 0
M  V30 80 H -5.541803 -4.023844 3.493669 0
M  V30 81 H -4.241393 -1.772577 1.618652 0
M  V30 82 H -2.716428 0.125131 5.166232 0
M  V30 83 H -3.149492 1.631938 4.287812 0
M  V30 84 H -4.327994 0.843674 5.358268 0
M  V30 85 H -2.749275 0.484413 0.212089 0
M  V30 86 H -6.328546 2.330779 1.561205 0
M  V30 87 H -6.192183 3.449559 0.190596 0
M  V30 88 H -6.976894 1.873896 -0.052069 0
M  V30 89 H -4.675495 -1.544163 -0.997890 0
M  V30 90 H -4.821439 1.391347 -4.035441 0
M  V30 91 H -3.185416 0.835007 -4.530073 0
M  V30 92 H -4.636035 0.143073 -5.284995 0
M  V30 93 H -0.081777 2.310222 -1.697615 0
M  V30 94 H -1.465437 3.125132 0.175379 0
M  V30 95 H -0.283194 0.932173 3.911770 0
M  V30 96 H 1.312318 -0.773903 4.604382 0
M  V30 97 H 3.989898 -3.238985 4.201535 0
M  V30 98 H 3.477725 -1.699283 4.903789 0
M  V30 99 H 2.263926 -2.966450 4.472408 0
M  V30 100 H 2.815825 -0.989736 0.602302 0
M  V30 END ATOM
M  V30 BEGIN BOND
M  V30 1 1 1 2
M  V30 2 1 2 3
M  V30 3 1 3 4
M  V30 4 1 4 5
M  V30 5 1 5 6
M  V30 6 1 6 7
M  V30 7 1 7 8
M  V30 8 1 8 9
M  V30 9 1 9 10
M  V30 10 1 10 11
M  V30 11 1 11 12
M  V30 12 1 12 13
M  V30 13 2 13 14
M  V30 14 1 14 15
M  V30 15 1 15 16
M  V30 16 1 16 17
M  V30 17 1 17 18
M  V30 18 1 18 19
M  V30 19 1 19 20
M  V30 20 1 20 21
M  V30 21 1 21 22
M  V30 22 2 21 23
M  V30 23 1 18 24
M  V30 24 1 24 25
M  V30 25 1 25 26
M  V30 26 1 26 27
M  V30 27 2 26 28
M  V30 28 1 24 29
M  V30 29 1 29 30
M  V30 30 1 30 31
M  V30 31 1 31 32
M  V30 32 2 31 33
M  V30 33 1 29 34
M  V30 34 1 34 35
M  V30 35 1 35 36
M  V30 36 1 36 37
M  V30 37 2 36 38
M  V30 38 1 14 39
M  V30 39 2 39 40
M  V30 40 1 39 41
M  V30 41 2 41 42
M  V30 42 1 11 43
M  V30 43 2 43 44
M  V30 44 1 44 45
M  V30 45 2 45 46
M  V30 46 1 46 47
M  V30 47 2 47 48
M  V30 48 1 48 49
M  V30 49 2 49 50
M  V30 50 1 50 51
M  V30 51 1 51 52
M  V30 52 1 50 53
M  V30 53 2 53 54
M  V30 54 1 8 3
M  V30 55 1 41 13
M  V30 56 1 54 43
M  V30 57 1 10 5
M  V30 58 1 34 16
M  V30 59 1 54 47
M  V30 60 1 1 55
M  V30 61 1 1 56
M  V30 62 1 1 57
M  V30 63 1 2 58
M  V30 64 1 2 59
M  V30 65 1 3 60 CFG=3
M  V30 66 1 4 61
M  V30 67 1 4 62
M  V30 68 1 6 63
M  V30 69 1 6 64
M  V30 70 1 7 65
M  V30 71 1 7 66
M  V30 72 1 8 67 CFG=3
M  V30 73 1 9 68
M  V30 74 1 9 69
M  V30 75 1 10 70 CFG=1
M  V30 76 1 11 71 CFG=3
M  V30 77 1 12 72
M  V30 78 1 15 73
M  V30 79 1 16 74 CFG=3
M  V30 80 1 18 75 CFG=3
M  V30 81 1 19 76
M  V30 82 1 19 77
M  V30 83 1 22 78
M  V30 84 1 22 79
M  V30 85 1 22 80
M  V30 86 1 24 81 CFG=1
M  V30 87 1 27 82
M  V30 88 1 27 83
M  V30 89 1 27 84
M  V30 90 1 29 85 CFG=3
M  V30 91 1 32 86
M  V30 92 1 32 87
M  V30 93 1 32 88
M  V30 94 1 34 89 CFG=1
M  V30 95 1 37 90
M  V30 96 1 37 91
M  V30 97 1 37 92
M  V30 98 1 44 93
M  V30 99 1 45 94
M  V30 100 1 48 95
M  V30 101 1 49 96
M  V30 102 1 52 97
M  V30 103 1 52 98
M  V30 104 1 52 99
M  V30 105 1 53 100
M  V30 END BOND
M  V30 END CTAB
M  END
>  <catalyst_id>  (1) 
SFCDWFVSLAWGNH_HBFAZBACSA_NONE

>  <source_smiles>  (1) 
CC[C@H]1CN2CC[C@H]1C[C@H]2[C@@H](Nc1c(N[C@H]2O[C@H](COC(C)=O)[C@@H](OC(C)=O)[C@H](OC(C)=O)[C@H]2OC(C)=O)c(=O)c1=O)c1ccnc2ccc(OC)cc12

>  <axial_configuration>  (1) 
none

>  <inchikey>  (1) 
SFCDWFVSLAWGNH-HBFAZBACSA-N

>  <build_source>  (1) 
smiles

>  <rdkit_version>  (1) 
2025.09.6

>  <random_seed>  (1) 
42

>  <generated_at>  (1) 
2026-05-19T12:36:55

$$$$
