catalyst60
     RDKit          3D

  0  0  0  0  0  0  0  0  0  0999 V3000
M  V30 BEGIN CTAB
M  V30 COUNTS 134 145 0 0 0
M  V30 BEGIN ATOM
M  V30 1 C 7.048538 1.554309 -0.641393 0
M  V30 2 C 7.236631 1.781375 0.663207 0
M  V30 3 C 6.195925 2.105561 1.709759 0 CFG=1
M  V30 4 C 4.776609 2.513291 1.235881 0
M  V30 5 N 3.709195 1.853580 2.150038 0 CFG=2 CHG=1
M  V30 6 C 2.353503 2.604971 1.894856 0
M  V30 7 C 1.176026 1.864279 1.335059 0
M  V30 8 C 0.327945 1.179779 2.230242 0
M  V30 9 C -0.746187 0.418199 1.778530 0
M  V30 10 C -1.580301 -0.244132 2.699723 0
M  V30 11 C -2.638697 -1.039020 2.266885 0
M  V30 12 C -2.867891 -1.186765 0.908828 0
M  V30 13 C -2.043852 -0.527943 -0.007356 0
M  V30 14 C -0.967633 0.305283 0.393601 0
M  V30 15 C -0.088444 1.007375 -0.531512 0
M  V30 16 C -0.376790 0.872945 -2.005457 0
M  V30 17 C 0.304744 -0.126247 -2.795089 0
M  V30 18 O 1.125233 -0.988599 -2.307662 0 CHG=-1
M  V30 19 C 0.017349 -0.126228 -4.186185 0
M  V30 20 C 0.771918 -1.091263 -5.071617 0
M  V30 21 N 1.780260 -0.531388 -6.129369 0 CFG=1 CHG=1
M  V30 22 C 1.019549 -0.145854 -7.396825 0
M  V30 23 C 1.992829 0.349823 -8.465384 0
M  V30 24 C 3.437489 0.132344 -8.017529 0 CFG=1
M  V30 25 C 3.675741 0.984496 -6.764342 0
M  V30 26 C 2.608645 0.738555 -5.659243 0 CFG=2
M  V30 27 C 3.204519 0.757061 -4.201493 0 CFG=1
M  V30 28 O 3.750672 -0.498745 -3.819052 0
M  V30 29 C 4.154030 1.941638 -3.967518 0
M  V30 30 C 3.526825 3.156088 -3.634777 0
M  V30 31 C 4.285068 4.293644 -3.468270 0
M  V30 32 N 5.617716 4.331314 -3.649030 0
M  V30 33 C 6.240827 3.182721 -3.945706 0
M  V30 34 C 7.616701 3.249274 -4.117319 0
M  V30 35 C 8.381650 2.122152 -4.411242 0
M  V30 36 C 7.753692 0.891762 -4.512502 0
M  V30 37 O 8.452064 -0.242443 -4.821626 0
M  V30 38 C 9.340405 -0.602025 -3.761384 0
M  V30 39 C 6.370446 0.797908 -4.370041 0
M  V30 40 C 5.572616 1.937893 -4.096469 0
M  V30 41 C 3.608866 -1.361528 -7.677514 0 CFG=1
M  V30 42 C 5.051746 -1.756646 -7.465744 0
M  V30 43 C 5.722516 -2.604919 -8.256161 0
M  V30 44 C 2.737709 -1.700374 -6.452623 0
M  V30 45 C -0.973823 0.709595 -4.732413 0
M  V30 46 C -1.638968 1.663755 -3.963792 0
M  V30 47 C -2.599019 2.504426 -4.559458 0
M  V30 48 C -3.254911 3.485646 -3.819638 0
M  V30 49 C -2.954050 3.638930 -2.475664 0
M  V30 50 C -2.008851 2.800561 -1.877753 0
M  V30 51 C -1.331757 1.780935 -2.595326 0
M  V30 52 C 0.975334 1.864929 -0.067529 0
M  V30 53 O 1.745643 2.554601 -0.826313 0 CHG=-1
M  V30 54 C 4.060461 2.130737 3.615357 0
M  V30 55 C 5.387688 1.487753 3.986787 0
M  V30 56 C 6.085805 0.959684 2.739694 0 CFG=1
M  V30 57 C 5.223072 -0.164263 2.159293 0
M  V30 58 C 3.744845 0.275361 1.922365 0 CFG=2
M  V30 59 C 3.208023 -0.358449 0.577035 0 CFG=1
M  V30 60 O 3.805794 0.244425 -0.558036 0
M  V30 61 C 3.313795 -1.896050 0.614049 0
M  V30 62 C 2.367912 -2.534650 1.440930 0
M  V30 63 C 2.407849 -3.902762 1.594988 0
M  V30 64 N 3.323061 -4.687349 1.005965 0
M  V30 65 C 4.189725 -4.111413 0.160787 0
M  V30 66 C 5.070799 -4.967514 -0.483455 0
M  V30 67 C 5.996903 -4.511638 -1.415578 0
M  V30 68 C 6.034909 -3.159910 -1.716185 0
M  V30 69 O 6.894828 -2.644595 -2.646930 0
M  V30 70 C 6.694885 -3.243332 -3.928257 0
M  V30 71 C 5.202656 -2.267415 -1.039821 0
M  V30 72 C 4.244077 -2.714556 -0.094430 0
M  V30 73 H 6.072506 1.558584 -1.117865 0
M  V30 74 H 7.892014 1.334291 -1.289912 0
M  V30 75 H 8.262965 1.731437 1.029960 0
M  V30 76 H 6.606912 2.982016 2.233980 0
M  V30 77 H 4.538546 2.277168 0.202702 0
M  V30 78 H 4.675267 3.600204 1.356173 0
M  V30 79 H 2.033554 3.007304 2.866996 0
M  V30 80 H 2.575426 3.520394 1.330789 0
M  V30 81 H 0.519542 1.246974 3.298182 0
M  V30 82 H -1.407790 -0.143418 3.766985 0
M  V30 83 H -3.276039 -1.545094 2.985362 0
M  V30 84 H -3.677976 -1.812761 0.547239 0
M  V30 85 H -2.233263 -0.679728 -1.068291 0
M  V30 86 H 1.329684 -1.842024 -4.502574 0
M  V30 87 H 0.035588 -1.681797 -5.636605 0
M  V30 88 H 0.311061 0.648001 -7.156801 0
M  V30 89 H 0.470833 -1.028479 -7.744608 0
M  V30 90 H 1.797688 -0.172640 -9.410214 0
M  V30 91 H 1.815591 1.414154 -8.663435 0
M  V30 92 H 4.126608 0.433745 -8.815842 0
M  V30 93 H 4.683456 0.778921 -6.406590 0
M  V30 94 H 3.664197 2.048428 -7.034490 0
M  V30 95 H 1.892561 1.570633 -5.717761 0
M  V30 96 H 2.385561 0.957765 -3.517229 0
M  V30 97 H 3.127933 -0.804989 -3.105059 0
M  V30 98 H 2.452106 3.207842 -3.461077 0
M  V30 99 H 3.819321 5.230928 -3.179124 0
M  V30 100 H 8.107764 4.215249 -4.020717 0
M  V30 101 H 9.451676 2.217413 -4.560056 0
M  V30 102 H 9.673434 -1.629088 -3.939384 0
M  V30 103 H 8.838654 -0.575307 -2.787192 0
M  V30 104 H 10.224317 0.044128 -3.752709 0
M  V30 105 H 5.918108 -0.184042 -4.456226 0
M  V30 106 H 3.226077 -1.945442 -8.527711 0
M  V30 107 H 5.576656 -1.332167 -6.610482 0
M  V30 108 H 5.271309 -3.067234 -9.127908 0
M  V30 109 H 6.760350 -2.848171 -8.045939 0
M  V30 110 H 3.321372 -1.937715 -5.561834 0
M  V30 111 H 2.111288 -2.573016 -6.681739 0
M  V30 112 H -1.246290 0.607264 -5.776530 0
M  V30 113 H -2.839737 2.403384 -5.614336 0
M  V30 114 H -3.990396 4.130166 -4.291474 0
M  V30 115 H -3.443030 4.404496 -1.881763 0
M  V30 116 H -1.783620 2.952428 -0.823384 0
M  V30 117 H 4.109348 3.219196 3.744849 0
M  V30 118 H 3.250675 1.731815 4.238645 0
M  V30 119 H 6.019393 2.221298 4.502716 0
M  V30 120 H 5.221832 0.671991 4.702257 0
M  V30 121 H 7.076028 0.571539 3.009172 0
M  V30 122 H 5.689313 -0.512700 1.233244 0
M  V30 123 H 5.229747 -1.025034 2.841483 0
M  V30 124 H 3.137146 -0.118853 2.748173 0
M  V30 125 H 2.140384 -0.209061 0.496893 0
M  V30 126 H 3.069496 0.779110 -0.959778 0
M  V30 127 H 1.579141 -1.971035 1.933316 0
M  V30 128 H 1.678796 -4.417294 2.213864 0
M  V30 129 H 5.020987 -6.030926 -0.261037 0
M  V30 130 H 6.667644 -5.216297 -1.895472 0
M  V30 131 H 5.633145 -3.255510 -4.208765 0
M  V30 132 H 7.231402 -2.643395 -4.667281 0
M  V30 133 H 7.108041 -4.257805 -3.955592 0
M  V30 134 H 5.285188 -1.218683 -1.303956 0
M  V30 END ATOM
M  V30 BEGIN BOND
M  V30 1 2 1 2
M  V30 2 1 2 3
M  V30 3 1 3 4
M  V30 4 1 4 5
M  V30 5 1 5 6 CFG=3
M  V30 6 1 6 7
M  V30 7 2 7 8
M  V30 8 1 8 9
M  V30 9 2 9 10
M  V30 10 1 10 11
M  V30 11 2 11 12
M  V30 12 1 12 13
M  V30 13 2 13 14
M  V30 14 1 14 15
M  V30 15 1 15 16
M  V30 16 2 16 17
M  V30 17 1 17 18
M  V30 18 1 17 19
M  V30 19 1 19 20
M  V30 20 1 21 20 CFG=1
M  V30 21 1 21 22
M  V30 22 1 22 23
M  V30 23 1 23 24
M  V30 24 1 24 25
M  V30 25 1 25 26
M  V30 26 1 26 27
M  V30 27 1 27 28
M  V30 28 1 27 29
M  V30 29 2 29 30
M  V30 30 1 30 31
M  V30 31 2 31 32
M  V30 32 1 32 33
M  V30 33 2 33 34
M  V30 34 1 34 35
M  V30 35 2 35 36
M  V30 36 1 36 37
M  V30 37 1 37 38
M  V30 38 1 36 39
M  V30 39 2 39 40
M  V30 40 1 24 41
M  V30 41 1 41 42
M  V30 42 2 42 43
M  V30 43 1 41 44
M  V30 44 2 19 45
M  V30 45 1 45 46
M  V30 46 2 46 47
M  V30 47 1 47 48
M  V30 48 2 48 49
M  V30 49 1 49 50
M  V30 50 2 50 51
M  V30 51 2 15 52
M  V30 52 1 52 53
M  V30 53 1 5 54
M  V30 54 1 54 55
M  V30 55 1 55 56
M  V30 56 1 56 57
M  V30 57 1 57 58
M  V30 58 1 58 59
M  V30 59 1 59 60
M  V30 60 1 59 61
M  V30 61 2 61 62
M  V30 62 1 62 63
M  V30 63 2 63 64
M  V30 64 1 64 65
M  V30 65 2 65 66
M  V30 66 1 66 67
M  V30 67 2 67 68
M  V30 68 1 68 69
M  V30 69 1 69 70
M  V30 70 1 68 71
M  V30 71 2 71 72
M  V30 72 1 56 3
M  V30 73 1 72 61
M  V30 74 1 58 5
M  V30 75 1 72 65
M  V30 76 1 52 7
M  V30 77 1 14 9
M  V30 78 1 51 16
M  V30 79 1 26 21
M  V30 80 1 40 29
M  V30 81 1 51 46
M  V30 82 1 44 21
M  V30 83 1 40 33
M  V30 84 1 1 73
M  V30 85 1 1 74
M  V30 86 1 2 75
M  V30 87 1 3 76 CFG=1
M  V30 88 1 4 77
M  V30 89 1 4 78
M  V30 90 1 6 79
M  V30 91 1 6 80
M  V30 92 1 8 81
M  V30 93 1 10 82
M  V30 94 1 11 83
M  V30 95 1 12 84
M  V30 96 1 13 85
M  V30 97 1 20 86
M  V30 98 1 20 87
M  V30 99 1 22 88
M  V30 100 1 22 89
M  V30 101 1 23 90
M  V30 102 1 23 91
M  V30 103 1 24 92 CFG=3
M  V30 104 1 25 93
M  V30 105 1 25 94
M  V30 106 1 26 95 CFG=1
M  V30 107 1 27 96 CFG=1
M  V30 108 1 28 97
M  V30 109 1 30 98
M  V30 110 1 31 99
M  V30 111 1 34 100
M  V30 112 1 35 101
M  V30 113 1 38 102
M  V30 114 1 38 103
M  V30 115 1 38 104
M  V30 116 1 39 105
M  V30 117 1 41 106 CFG=3
M  V30 118 1 42 107
M  V30 119 1 43 108
M  V30 120 1 43 109
M  V30 121 1 44 110
M  V30 122 1 44 111
M  V30 123 1 45 112
M  V30 124 1 47 113
M  V30 125 1 48 114
M  V30 126 1 49 115
M  V30 127 1 50 116
M  V30 128 1 54 117
M  V30 129 1 54 118
M  V30 130 1 55 119
M  V30 131 1 55 120
M  V30 132 1 56 121 CFG=1
M  V30 133 1 57 122
M  V30 134 1 57 123
M  V30 135 1 58 124 CFG=1
M  V30 136 1 59 125 CFG=3
M  V30 137 1 60 126
M  V30 138 1 62 127
M  V30 139 1 63 128
M  V30 140 1 66 129
M  V30 141 1 67 130
M  V30 142 1 70 131
M  V30 143 1 70 132
M  V30 144 1 70 133
M  V30 145 1 71 134
M  V30 END BOND
M  V30 END CTAB
M  END
>  <catalyst_id>  (1) 
FSDYZSWGRCPKAO_XZPNWRTISA_S

>  <source_smiles>  (1) 
C=C[C@H]1C[N+]2(Cc3cc4ccccc4c(-c4c([O-])c(C[N+]56CC[C@@H](C[C@@H]5[C@@H](O)c5ccnc7ccc(OC)cc57)[C@@H](C=C)C6)cc5ccccc45)c3[O-])CC[C@H]1C[C@@H]2[C@@H](O)c1ccnc2ccc(OC)cc12

>  <axial_configuration>  (1) 
S

>  <inchikey>  (1) 
FSDYZSWGRCPKAO-XZPNWRTISA-N

>  <build_source>  (1) 
smiles+axial_free

>  <final_biaryl_angle_deg>  (1) 
-94.85

>  <rdkit_version>  (1) 
2025.09.6

>  <random_seed>  (1) 
42

>  <generated_at>  (1) 
2026-05-19T12:32:27

$$$$
