catalyst363
     RDKit          3D

  0  0  0  0  0  0  0  0  0  0999 V3000
M  V30 BEGIN CTAB
M  V30 COUNTS 45 48 0 0 0
M  V30 BEGIN ATOM
M  V30 1 C -2.228183 2.213331 2.430305 0
M  V30 2 C -2.638998 2.191706 1.155676 0
M  V30 3 C -3.048393 0.987225 0.333434 0 CFG=1
M  V30 4 C -2.436426 1.036689 -1.099838 0
M  V30 5 N -1.715898 -0.220505 -1.452453 0
M  V30 6 C -2.705638 -1.321366 -1.402082 0
M  V30 7 C -3.378924 -1.448374 -0.028811 0
M  V30 8 C -2.763426 -0.417025 0.933103 0 CFG=1
M  V30 9 C -1.252797 -0.720316 0.957831 0
M  V30 10 C -0.636044 -0.394617 -0.420970 0 CFG=1
M  V30 11 C 0.507808 -1.368155 -0.856968 0 CFG=2
M  V30 12 O 0.087985 -2.736255 -0.819798 0
M  V30 13 C 1.761665 -1.194980 -0.005795 0
M  V30 14 C 1.998636 -2.077863 1.056567 0
M  V30 15 C 3.124243 -1.905180 1.834518 0
M  V30 16 N 4.023360 -0.922457 1.641071 0
M  V30 17 C 3.815287 -0.065275 0.631140 0
M  V30 18 C 4.750127 0.943686 0.443590 0
M  V30 19 C 4.623320 1.887398 -0.575327 0
M  V30 20 C 3.536504 1.819357 -1.425951 0
M  V30 21 O 3.438883 2.755804 -2.410542 0
M  V30 22 C 2.579317 0.821546 -1.269802 0
M  V30 23 C 2.696478 -0.144292 -0.236589 0
M  V30 24 H -1.976433 3.154502 2.911490 0
M  V30 25 H -2.138512 1.317987 3.035401 0
M  V30 26 H -2.725457 3.152408 0.646903 0
M  V30 27 H -4.138700 1.076151 0.217620 0
M  V30 28 H -1.754238 1.888176 -1.223336 0
M  V30 29 H -3.236416 1.207941 -1.832775 0
M  V30 30 H -3.473412 -1.148591 -2.167787 0
M  V30 31 H -2.250433 -2.273009 -1.686721 0
M  V30 32 H -3.239407 -2.463093 0.363051 0
M  V30 33 H -4.459314 -1.284597 -0.120333 0
M  V30 34 H -3.203589 -0.530848 1.929515 0
M  V30 35 H -1.105345 -1.772297 1.229028 0
M  V30 36 H -0.749166 -0.128851 1.729766 0
M  V30 37 H -0.154131 0.589050 -0.327291 0
M  V30 38 H 0.781344 -1.173384 -1.901078 0
M  V30 39 H -0.323226 -2.908837 -1.683353 0
M  V30 40 H 1.317133 -2.894430 1.275427 0
M  V30 41 H 3.339574 -2.574418 2.662441 0
M  V30 42 H 5.605417 0.997003 1.113478 0
M  V30 43 H 5.370603 2.665769 -0.697332 0
M  V30 44 H 2.638197 2.585824 -2.933412 0
M  V30 45 H 1.736624 0.797465 -1.953013 0
M  V30 END ATOM
M  V30 BEGIN BOND
M  V30 1 2 1 2
M  V30 2 1 2 3
M  V30 3 1 3 4
M  V30 4 1 4 5
M  V30 5 1 5 6
M  V30 6 1 6 7
M  V30 7 1 7 8
M  V30 8 1 8 9
M  V30 9 1 9 10
M  V30 10 1 10 11
M  V30 11 1 11 12
M  V30 12 1 11 13
M  V30 13 2 13 14
M  V30 14 1 14 15
M  V30 15 2 15 16
M  V30 16 1 16 17
M  V30 17 2 17 18
M  V30 18 1 18 19
M  V30 19 2 19 20
M  V30 20 1 20 21
M  V30 21 1 20 22
M  V30 22 2 22 23
M  V30 23 1 8 3
M  V30 24 1 23 13
M  V30 25 1 10 5
M  V30 26 1 23 17
M  V30 27 1 1 24
M  V30 28 1 1 25
M  V30 29 1 2 26
M  V30 30 1 3 27 CFG=3
M  V30 31 1 4 28
M  V30 32 1 4 29
M  V30 33 1 6 30
M  V30 34 1 6 31
M  V30 35 1 7 32
M  V30 36 1 7 33
M  V30 37 1 8 34 CFG=1
M  V30 38 1 9 35
M  V30 39 1 9 36
M  V30 40 1 10 37 CFG=1
M  V30 41 1 11 38 CFG=3
M  V30 42 1 12 39
M  V30 43 1 14 40
M  V30 44 1 15 41
M  V30 45 1 18 42
M  V30 46 1 19 43
M  V30 47 1 21 44
M  V30 48 1 22 45
M  V30 END BOND
M  V30 END CTAB
M  END
>  <catalyst_id>  (1) 
VJFMSYZSFUWQPZ_BIPCEHGGSA_NONE

>  <source_smiles>  (1) 
C=C[C@H]1CN2CC[C@H]1C[C@H]2[C@H](O)c1ccnc2ccc(O)cc12

>  <axial_configuration>  (1) 
none

>  <inchikey>  (1) 
VJFMSYZSFUWQPZ-BIPCEHGGSA-N

>  <build_source>  (1) 
smiles

>  <rdkit_version>  (1) 
2025.09.6

>  <random_seed>  (1) 
42

>  <generated_at>  (1) 
2026-05-19T12:33:40

$$$$
