catalyst21
     RDKit          3D

  0  0  0  0  0  0  0  0  0  0999 V3000
M  V30 BEGIN CTAB
M  V30 COUNTS 73 78 0 0 0
M  V30 BEGIN ATOM
M  V30 1 C -4.052124 -5.571920 0.238029 0
M  V30 2 C -3.662319 -4.291739 0.181053 0
M  V30 3 C -3.398918 -3.437099 1.398448 0 CFG=1
M  V30 4 C -1.967804 -2.838692 1.386646 0
M  V30 5 N -1.958958 -1.397323 1.753756 0
M  V30 6 C -2.675479 -1.242926 3.043089 0
M  V30 7 C -4.160207 -1.622946 2.917247 0
M  V30 8 C -4.408020 -2.270466 1.542015 0 CFG=1
M  V30 9 C -4.114324 -1.199071 0.474190 0
M  V30 10 C -2.702792 -0.605742 0.709020 0 CFG=2
M  V30 11 C -1.897300 -0.440121 -0.637441 0 CFG=2
M  V30 12 N -0.461491 -0.292258 -0.345941 0
M  V30 13 C 0.504133 -0.486966 -1.221574 0
M  V30 14 C 1.876699 -0.505516 -1.207756 0
M  V30 15 N 2.831572 -0.329015 -0.315694 0
M  V30 16 C 4.240039 -0.172513 -0.684213 0
M  V30 17 C 5.125287 -0.233849 0.565249 0
M  V30 18 C 6.585899 -0.060497 0.233274 0
M  V30 19 C 7.370238 -1.167870 -0.116491 0
M  V30 20 C 8.717035 -1.004696 -0.443926 0
M  V30 21 C 9.290567 0.265229 -0.428433 0
M  V30 22 C 8.517847 1.373554 -0.087051 0
M  V30 23 C 7.170658 1.212995 0.240546 0
M  V30 24 C 1.941733 -0.794554 -2.664043 0
M  V30 25 O 2.767822 -0.959383 -3.528266 0
M  V30 26 C 0.460314 -0.824075 -2.668407 0
M  V30 27 O -0.351675 -1.087365 -3.522405 0
M  V30 28 C -2.417092 0.719856 -1.483816 0
M  V30 29 C -3.082161 0.391209 -2.675107 0
M  V30 30 C -3.594157 1.401971 -3.461017 0
M  V30 31 N -3.506925 2.706651 -3.146995 0
M  V30 32 C -2.862292 3.043771 -2.020949 0
M  V30 33 C -2.768137 4.395454 -1.723402 0
M  V30 34 C -2.115021 4.865522 -0.580448 0
M  V30 35 C -1.532400 3.962142 0.294193 0
M  V30 36 O -0.860303 4.269650 1.443821 0
M  V30 37 C -0.724131 5.650132 1.758457 0
M  V30 38 C -1.619281 2.596300 0.010276 0
M  V30 39 C -2.285457 2.098785 -1.140200 0
M  V30 40 H -4.211453 -6.082570 1.182854 0
M  V30 41 H -4.223229 -6.141314 -0.671029 0
M  V30 42 H -3.517962 -3.840628 -0.798667 0
M  V30 43 H -3.491444 -4.069194 2.293628 0
M  V30 44 H -1.343939 -3.387869 2.104452 0
M  V30 45 H -1.471188 -2.981626 0.419481 0
M  V30 46 H -2.191263 -1.860087 3.810512 0
M  V30 47 H -2.583623 -0.209183 3.398605 0
M  V30 48 H -4.435794 -2.316794 3.720077 0
M  V30 49 H -4.788420 -0.731025 3.029612 0
M  V30 50 H -5.443008 -2.621282 1.463490 0
M  V30 51 H -4.215925 -1.628427 -0.527770 0
M  V30 52 H -4.858990 -0.396221 0.546278 0
M  V30 53 H -2.838757 0.396615 1.134320 0
M  V30 54 H -2.011053 -1.377744 -1.198776 0
M  V30 55 H -0.286010 -0.440664 0.653732 0
M  V30 56 H 2.591853 0.064547 0.594261 0
M  V30 57 H 4.375392 0.787972 -1.196561 0
M  V30 58 H 4.536600 -0.966023 -1.381260 0
M  V30 59 H 4.978193 -1.189973 1.084487 0
M  V30 60 H 4.819476 0.538566 1.283121 0
M  V30 61 H 6.936535 -2.165405 -0.138080 0
M  V30 62 H 9.318398 -1.868912 -0.713875 0
M  V30 63 H 10.339039 0.391335 -0.685054 0
M  V30 64 H 8.964492 2.364390 -0.078206 0
M  V30 65 H 6.581084 2.089309 0.500566 0
M  V30 66 H -3.186447 -0.638854 -3.003434 0
M  V30 67 H -4.104007 1.181830 -4.394568 0
M  V30 68 H -3.217774 5.111348 -2.408648 0
M  V30 69 H -2.081936 5.936699 -0.415478 0
M  V30 70 H -1.701668 6.115146 1.923474 0
M  V30 71 H -0.160075 6.178447 0.982651 0
M  V30 72 H -0.157761 5.725796 2.691684 0
M  V30 73 H -1.140408 1.915177 0.708385 0
M  V30 END ATOM
M  V30 BEGIN BOND
M  V30 1 2 1 2
M  V30 2 1 2 3
M  V30 3 1 3 4
M  V30 4 1 4 5
M  V30 5 1 5 6
M  V30 6 1 6 7
M  V30 7 1 7 8
M  V30 8 1 8 9
M  V30 9 1 9 10
M  V30 10 1 10 11
M  V30 11 1 11 12
M  V30 12 1 12 13
M  V30 13 2 13 14
M  V30 14 1 14 15
M  V30 15 1 15 16
M  V30 16 1 16 17
M  V30 17 1 17 18
M  V30 18 2 18 19
M  V30 19 1 19 20
M  V30 20 2 20 21
M  V30 21 1 21 22
M  V30 22 2 22 23
M  V30 23 1 14 24
M  V30 24 2 24 25
M  V30 25 1 24 26
M  V30 26 2 26 27
M  V30 27 1 11 28
M  V30 28 2 28 29
M  V30 29 1 29 30
M  V30 30 2 30 31
M  V30 31 1 31 32
M  V30 32 2 32 33
M  V30 33 1 33 34
M  V30 34 2 34 35
M  V30 35 1 35 36
M  V30 36 1 36 37
M  V30 37 1 35 38
M  V30 38 2 38 39
M  V30 39 1 8 3
M  V30 40 1 26 13
M  V30 41 1 39 28
M  V30 42 1 10 5
M  V30 43 1 23 18
M  V30 44 1 39 32
M  V30 45 1 1 40
M  V30 46 1 1 41
M  V30 47 1 2 42
M  V30 48 1 3 43 CFG=1
M  V30 49 1 4 44
M  V30 50 1 4 45
M  V30 51 1 6 46
M  V30 52 1 6 47
M  V30 53 1 7 48
M  V30 54 1 7 49
M  V30 55 1 8 50 CFG=1
M  V30 56 1 9 51
M  V30 57 1 9 52
M  V30 58 1 10 53 CFG=1
M  V30 59 1 11 54 CFG=3
M  V30 60 1 12 55
M  V30 61 1 15 56
M  V30 62 1 16 57
M  V30 63 1 16 58
M  V30 64 1 17 59
M  V30 65 1 17 60
M  V30 66 1 19 61
M  V30 67 1 20 62
M  V30 68 1 21 63
M  V30 69 1 22 64
M  V30 70 1 23 65
M  V30 71 1 29 66
M  V30 72 1 30 67
M  V30 73 1 33 68
M  V30 74 1 34 69
M  V30 75 1 37 70
M  V30 76 1 37 71
M  V30 77 1 37 72
M  V30 78 1 38 73
M  V30 END BOND
M  V30 END CTAB
M  END
>  <catalyst_id>  (1) 
BSYKRGGWVNVYFU_SHRQFBHGSA_NONE

>  <source_smiles>  (1) 
C=C[C@H]1CN2CC[C@H]1C[C@@H]2[C@H](Nc1c(NCCc2ccccc2)c(=O)c1=O)c1ccnc2ccc(OC)cc12

>  <axial_configuration>  (1) 
none

>  <inchikey>  (1) 
BSYKRGGWVNVYFU-SHRQFBHGSA-N

>  <build_source>  (1) 
smiles

>  <rdkit_version>  (1) 
2025.09.6

>  <random_seed>  (1) 
42

>  <generated_at>  (1) 
2026-05-19T12:40:26

$$$$
