catalyst48
     RDKit          3D

  0  0  0  0  0  0  0  0  0  0999 V3000
M  V30 BEGIN CTAB
M  V30 COUNTS 77 81 0 0 0
M  V30 BEGIN ATOM
M  V30 1 N -2.797095 1.059852 -2.629773 0
M  V30 2 C -1.330442 0.985645 -2.377526 0 CFG=1
M  V30 3 C -0.867411 2.219645 -1.551337 0 CFG=1
M  V30 4 O -1.660873 2.312177 -0.363459 0
M  V30 5 C -1.536578 3.581754 0.277269 0
M  V30 6 C -2.459243 4.589154 -0.362984 0
M  V30 7 C -3.836555 4.336847 -0.444426 0
M  V30 8 C -4.692270 5.263101 -1.041439 0
M  V30 9 C -4.180448 6.451069 -1.559889 0
M  V30 10 C -2.813874 6.714315 -1.480728 0
M  V30 11 C -1.956072 5.788767 -0.883978 0
M  V30 12 O 0.523160 2.161017 -1.262318 0
M  V30 13 C 0.867170 1.017164 -0.468742 0 CFG=2
M  V30 14 C 2.358673 1.118512 -0.109708 0
M  V30 15 O 2.542341 2.166661 0.855528 0
M  V30 16 C 3.888148 2.237681 1.331363 0
M  V30 17 C 4.199838 1.137248 2.318009 0
M  V30 18 C 3.306525 0.835781 3.356497 0
M  V30 19 C 3.594157 -0.180967 4.267967 0
M  V30 20 C 4.781667 -0.901096 4.156643 0
M  V30 21 C 5.682294 -0.604387 3.135232 0
M  V30 22 C 5.395665 0.412213 2.221914 0
M  V30 23 C 0.575845 -0.273737 -1.244483 0 CFG=1
M  V30 24 O 0.892503 -1.381888 -0.384369 0
M  V30 25 C 1.555008 -2.450317 -1.057800 0
M  V30 26 C 1.930819 -3.513316 -0.054931 0
M  V30 27 C 1.731935 -4.869544 -0.350445 0
M  V30 28 C 2.107639 -5.857493 0.562263 0
M  V30 29 C 2.694019 -5.501783 1.775545 0
M  V30 30 C 2.906827 -4.158494 2.077179 0
M  V30 31 C 2.531172 -3.170232 1.166175 0
M  V30 32 C -0.914345 -0.333774 -1.668065 0 CFG=2
M  V30 33 O -1.024081 -1.480102 -2.544782 0
M  V30 34 C -2.337225 -2.006434 -2.737430 0
M  V30 35 C -2.987840 -2.527809 -1.478420 0
M  V30 36 C -4.297701 -2.151188 -1.150221 0
M  V30 37 C -4.905324 -2.637376 0.008891 0
M  V30 38 C -4.211374 -3.506125 0.849426 0
M  V30 39 C -2.911056 -3.891997 0.530674 0
M  V30 40 C -2.304897 -3.409940 -0.629855 0
M  V30 41 H -3.248083 1.101907 -1.709613 0
M  V30 42 H -3.009636 1.965401 -3.051989 0
M  V30 43 H -0.829340 1.006324 -3.353614 0
M  V30 44 H -1.030986 3.110832 -2.169430 0
M  V30 45 H -0.493812 3.920020 0.286815 0
M  V30 46 H -1.838110 3.454833 1.323231 0
M  V30 47 H -4.244716 3.412271 -0.040871 0
M  V30 48 H -5.758236 5.058931 -1.099580 0
M  V30 49 H -4.847192 7.173649 -2.023214 0
M  V30 50 H -2.415810 7.642473 -1.882864 0
M  V30 51 H -0.891875 6.009093 -0.830656 0
M  V30 52 H 0.300953 1.039612 0.471808 0
M  V30 53 H 2.948325 1.362318 -1.001210 0
M  V30 54 H 2.716967 0.175037 0.311310 0
M  V30 55 H 4.581169 2.232745 0.481541 0
M  V30 56 H 4.007062 3.199892 1.841781 0
M  V30 57 H 2.373769 1.389359 3.448046 0
M  V30 58 H 2.889394 -0.410932 5.062725 0
M  V30 59 H 5.005575 -1.692630 4.866708 0
M  V30 60 H 6.609223 -1.165582 3.049705 0
M  V30 61 H 6.110720 0.629729 1.431924 0
M  V30 62 H 1.202629 -0.300808 -2.147314 0
M  V30 63 H 0.900608 -2.867692 -1.828279 0
M  V30 64 H 2.472362 -2.082820 -1.533028 0
M  V30 65 H 1.278437 -5.165874 -1.293603 0
M  V30 66 H 1.942808 -6.905318 0.325723 0
M  V30 67 H 2.984831 -6.270849 2.485776 0
M  V30 68 H 3.363256 -3.875095 3.021649 0
M  V30 69 H 2.701104 -2.125024 1.418133 0
M  V30 70 H -1.517391 -0.497340 -0.766680 0
M  V30 71 H -2.234074 -2.854407 -3.425484 0
M  V30 72 H -2.968921 -1.287056 -3.262401 0
M  V30 73 H -4.849608 -1.470970 -1.795344 0
M  V30 74 H -5.919482 -2.336402 0.257205 0
M  V30 75 H -4.682119 -3.880707 1.754213 0
M  V30 76 H -2.363158 -4.563440 1.186754 0
M  V30 77 H -1.287344 -3.712083 -0.863340 0
M  V30 END ATOM
M  V30 BEGIN BOND
M  V30 1 1 1 2
M  V30 2 1 2 3
M  V30 3 1 3 4
M  V30 4 1 4 5
M  V30 5 1 5 6
M  V30 6 2 6 7
M  V30 7 1 7 8
M  V30 8 2 8 9
M  V30 9 1 9 10
M  V30 10 2 10 11
M  V30 11 1 3 12
M  V30 12 1 12 13
M  V30 13 1 13 14
M  V30 14 1 14 15
M  V30 15 1 15 16
M  V30 16 1 16 17
M  V30 17 2 17 18
M  V30 18 1 18 19
M  V30 19 2 19 20
M  V30 20 1 20 21
M  V30 21 2 21 22
M  V30 22 1 13 23
M  V30 23 1 23 24
M  V30 24 1 24 25
M  V30 25 1 25 26
M  V30 26 2 26 27
M  V30 27 1 27 28
M  V30 28 2 28 29
M  V30 29 1 29 30
M  V30 30 2 30 31
M  V30 31 1 23 32
M  V30 32 1 32 33
M  V30 33 1 33 34
M  V30 34 1 34 35
M  V30 35 2 35 36
M  V30 36 1 36 37
M  V30 37 2 37 38
M  V30 38 1 38 39
M  V30 39 2 39 40
M  V30 40 1 32 2
M  V30 41 1 40 35
M  V30 42 1 11 6
M  V30 43 1 22 17
M  V30 44 1 31 26
M  V30 45 1 1 41
M  V30 46 1 1 42
M  V30 47 1 2 43 CFG=3
M  V30 48 1 3 44 CFG=3
M  V30 49 1 5 45
M  V30 50 1 5 46
M  V30 51 1 7 47
M  V30 52 1 8 48
M  V30 53 1 9 49
M  V30 54 1 10 50
M  V30 55 1 11 51
M  V30 56 1 13 52 CFG=1
M  V30 57 1 14 53
M  V30 58 1 14 54
M  V30 59 1 16 55
M  V30 60 1 16 56
M  V30 61 1 18 57
M  V30 62 1 19 58
M  V30 63 1 20 59
M  V30 64 1 21 60
M  V30 65 1 22 61
M  V30 66 1 23 62 CFG=3
M  V30 67 1 25 63
M  V30 68 1 25 64
M  V30 69 1 27 65
M  V30 70 1 28 66
M  V30 71 1 29 67
M  V30 72 1 30 68
M  V30 73 1 31 69
M  V30 74 1 32 70 CFG=1
M  V30 75 1 34 71
M  V30 76 1 34 72
M  V30 77 1 36 73
M  V30 78 1 37 74
M  V30 79 1 38 75
M  V30 80 1 39 76
M  V30 81 1 40 77
M  V30 END BOND
M  V30 END CTAB
M  END
>  <catalyst_id>  (1) 
DYDAVEMWGWFNJE_NEPHXMAZSA_NONE

>  <source_smiles>  (1) 
N[C@H]1[C@@H](OCc2ccccc2)O[C@H](COCc2ccccc2)[C@@H](OCc2ccccc2)[C@@H]1OCc1ccccc1

>  <axial_configuration>  (1) 
none

>  <inchikey>  (1) 
DYDAVEMWGWFNJE-NEPHXMAZSA-N

>  <build_source>  (1) 
smiles

>  <rdkit_version>  (1) 
2025.09.6

>  <random_seed>  (1) 
42

>  <generated_at>  (1) 
2026-05-19T12:34:54

$$$$
