catalyst267
     RDKit          3D

  0  0  0  0  0  0  0  0  0  0999 V3000
M  V30 BEGIN CTAB
M  V30 COUNTS 63 67 0 0 0
M  V30 BEGIN ATOM
M  V30 1 C -4.279349 -2.501139 -2.753050 0
M  V30 2 C -3.294445 -1.692762 -2.340084 0
M  V30 3 C -2.893527 -0.421965 -3.052041 0 CFG=1
M  V30 4 C -2.976369 0.815275 -2.120204 0
M  V30 5 N -1.759658 1.661762 -2.210944 0
M  V30 6 C -1.542168 2.017145 -3.632090 0
M  V30 7 C -1.253253 0.774865 -4.489020 0
M  V30 8 C -1.460090 -0.490364 -3.637366 0 CFG=1
M  V30 9 C -0.431458 -0.438195 -2.491271 0
M  V30 10 C -0.569655 0.903212 -1.718817 0 CFG=2
M  V30 11 C -0.516808 0.677561 -0.165077 0 CFG=1
M  V30 12 O 0.802619 0.177408 0.164187 0
M  V30 13 C 0.887919 -1.083566 0.641804 0
M  V30 14 O -0.035988 -1.868041 0.782854 0
M  V30 15 C 2.300429 -1.415576 0.975751 0
M  V30 16 C 2.596950 -2.730642 1.360778 0
M  V30 17 C 3.909299 -3.106894 1.689871 0
M  V30 18 C 4.218266 -4.535808 2.075107 0
M  V30 19 F 4.413909 -5.328044 0.986805 0
M  V30 20 F 3.220096 -5.118514 2.793289 0
M  V30 21 F 5.342588 -4.652074 2.833502 0
M  V30 22 C 4.929234 -2.143651 1.616506 0
M  V30 23 C 4.650252 -0.817241 1.245358 0
M  V30 24 C 5.758428 0.207510 1.152975 0
M  V30 25 F 5.342530 1.468068 1.452151 0
M  V30 26 F 6.289845 0.272400 -0.097717 0
M  V30 27 F 6.797421 -0.054512 1.991908 0
M  V30 28 C 3.329194 -0.464577 0.921222 0
M  V30 29 C -0.709357 1.904847 0.723258 0
M  V30 30 C -0.298050 3.167722 0.275653 0
M  V30 31 C -0.452608 4.260675 1.104280 0
M  V30 32 N -0.964429 4.192930 2.345689 0
M  V30 33 C -1.349338 2.994285 2.803741 0
M  V30 34 C -1.864984 2.942535 4.091843 0
M  V30 35 C -2.284616 1.746428 4.671849 0
M  V30 36 C -2.185993 0.576863 3.944533 0
M  V30 37 O -2.597171 -0.580127 4.534953 0
M  V30 38 C -1.678561 0.591888 2.648630 0
M  V30 39 C -1.246601 1.800924 2.043204 0
M  V30 40 H -4.526518 -3.402041 -2.198989 0
M  V30 41 H -4.859384 -2.290174 -3.646201 0
M  V30 42 H -2.752899 -1.961092 -1.434392 0
M  V30 43 H -3.587057 -0.258380 -3.889638 0
M  V30 44 H -3.161982 0.534786 -1.076596 0
M  V30 45 H -3.848235 1.419787 -2.404191 0
M  V30 46 H -0.712157 2.729680 -3.715079 0
M  V30 47 H -2.421421 2.546907 -4.020015 0
M  V30 48 H -1.917989 0.759916 -5.360694 0
M  V30 49 H -0.224083 0.808661 -4.866331 0
M  V30 50 H -1.316724 -1.390381 -4.245559 0
M  V30 51 H -0.565517 -1.303731 -1.836110 0
M  V30 52 H 0.582158 -0.514015 -2.905127 0
M  V30 53 H 0.325518 1.490668 -1.971158 0
M  V30 54 H -1.297626 -0.052770 0.067425 0
M  V30 55 H 1.798761 -3.473552 1.405062 0
M  V30 56 H 5.955849 -2.429028 1.856961 0
M  V30 57 H 3.113745 0.563847 0.630839 0
M  V30 58 H 0.131285 3.320643 -0.707812 0
M  V30 59 H -0.155444 5.253975 0.780166 0
M  V30 60 H -1.939946 3.864577 4.664018 0
M  V30 61 H -2.682034 1.735786 5.682192 0
M  V30 62 H -2.461700 -1.316473 3.914947 0
M  V30 63 H -1.621107 -0.348211 2.112260 0
M  V30 END ATOM
M  V30 BEGIN BOND
M  V30 1 2 1 2
M  V30 2 1 2 3
M  V30 3 1 3 4
M  V30 4 1 4 5
M  V30 5 1 5 6
M  V30 6 1 6 7
M  V30 7 1 7 8
M  V30 8 1 8 9
M  V30 9 1 9 10
M  V30 10 1 10 11
M  V30 11 1 11 12
M  V30 12 1 12 13
M  V30 13 2 13 14
M  V30 14 1 13 15
M  V30 15 2 15 16
M  V30 16 1 16 17
M  V30 17 1 17 18
M  V30 18 1 18 19
M  V30 19 1 18 20
M  V30 20 1 18 21
M  V30 21 2 17 22
M  V30 22 1 22 23
M  V30 23 1 23 24
M  V30 24 1 24 25
M  V30 25 1 24 26
M  V30 26 1 24 27
M  V30 27 2 23 28
M  V30 28 1 11 29
M  V30 29 2 29 30
M  V30 30 1 30 31
M  V30 31 2 31 32
M  V30 32 1 32 33
M  V30 33 2 33 34
M  V30 34 1 34 35
M  V30 35 2 35 36
M  V30 36 1 36 37
M  V30 37 1 36 38
M  V30 38 2 38 39
M  V30 39 1 8 3
M  V30 40 1 28 15
M  V30 41 1 39 29
M  V30 42 1 10 5
M  V30 43 1 39 33
M  V30 44 1 1 40
M  V30 45 1 1 41
M  V30 46 1 2 42
M  V30 47 1 3 43 CFG=3
M  V30 48 1 4 44
M  V30 49 1 4 45
M  V30 50 1 6 46
M  V30 51 1 6 47
M  V30 52 1 7 48
M  V30 53 1 7 49
M  V30 54 1 8 50 CFG=3
M  V30 55 1 9 51
M  V30 56 1 9 52
M  V30 57 1 10 53 CFG=3
M  V30 58 1 11 54 CFG=1
M  V30 59 1 16 55
M  V30 60 1 22 56
M  V30 61 1 28 57
M  V30 62 1 30 58
M  V30 63 1 31 59
M  V30 64 1 34 60
M  V30 65 1 35 61
M  V30 66 1 37 62
M  V30 67 1 38 63
M  V30 END BOND
M  V30 END CTAB
M  END
>  <catalyst_id>  (1) 
PUJICWBMQMYISO_MKWKOJJYSA_NONE

>  <source_smiles>  (1) 
C=C[C@H]1CN2CC[C@H]1C[C@@H]2[C@@H](OC(=O)c1cc(C(F)(F)F)cc(C(F)(F)F)c1)c1ccnc2ccc(O)cc12

>  <axial_configuration>  (1) 
none

>  <inchikey>  (1) 
PUJICWBMQMYISO-MKWKOJJYSA-N

>  <build_source>  (1) 
smiles

>  <rdkit_version>  (1) 
2025.09.6

>  <random_seed>  (1) 
42

>  <generated_at>  (1) 
2026-05-19T12:30:17

$$$$
