catalyst209
     RDKit          3D

  0  0  0  0  0  0  0  0  0  0999 V3000
M  V30 BEGIN CTAB
M  V30 COUNTS 71 75 0 0 0
M  V30 BEGIN ATOM
M  V30 1 F 7.198539 -2.259502 -1.193531 0
M  V30 2 C 7.124643 -0.981616 -1.656373 0
M  V30 3 F 6.552990 -1.062071 -2.889674 0
M  V30 4 F 8.409686 -0.583267 -1.866365 0
M  V30 5 C 6.369034 -0.077314 -0.713316 0
M  V30 6 C 4.967483 -0.007355 -0.771782 0
M  V30 7 C 4.242498 0.823347 0.092772 0
M  V30 8 N 2.839613 0.809642 -0.042744 0
M  V30 9 C 1.874947 1.702119 0.349715 0
M  V30 10 S 2.053446 3.293778 0.820672 0
M  V30 11 N 0.594753 1.220369 0.306386 0
M  V30 12 C 0.144958 -0.183366 0.412840 0 CFG=2
M  V30 13 C 0.368289 -0.943061 -0.888584 0
M  V30 14 C 0.022678 -0.380936 -2.128114 0
M  V30 15 C 0.243577 -1.084505 -3.312326 0
M  V30 16 C 0.805882 -2.358549 -3.272633 0
M  V30 17 C 1.144573 -2.932764 -2.049219 0
M  V30 18 C 0.925924 -2.231183 -0.863036 0
M  V30 19 C -1.372511 -0.228513 0.848305 0 CFG=2
M  V30 20 N -1.645403 0.849731 1.840796 0
M  V30 21 C -3.073949 1.151766 1.996190 0
M  V30 22 C -3.666413 1.849048 0.785424 0
M  V30 23 C -3.104388 3.091537 0.425003 0
M  V30 24 C -3.566478 3.796379 -0.678757 0
M  V30 25 C -4.603599 3.274222 -1.442925 0
M  V30 26 C -5.194617 2.045814 -1.114333 0
M  V30 27 C -6.241572 1.548180 -1.908041 0
M  V30 28 C -6.853908 0.332872 -1.612633 0
M  V30 29 C -6.426726 -0.400263 -0.515915 0
M  V30 30 C -5.386546 0.081713 0.283967 0
M  V30 31 C -4.737524 1.310841 0.012072 0
M  V30 32 C -1.766079 -1.607858 1.364916 0
M  V30 33 C -1.254488 -2.126418 2.566203 0
M  V30 34 C -1.625198 -3.398469 3.006678 0
M  V30 35 C -2.505607 -4.170563 2.252349 0
M  V30 36 C -3.014336 -3.674175 1.054906 0
M  V30 37 C -2.645902 -2.402941 0.612732 0
M  V30 38 C 4.932384 1.550542 1.062638 0
M  V30 39 C 6.334136 1.486162 1.157580 0
M  V30 40 C 7.059785 2.300196 2.202854 0
M  V30 41 F 6.374408 2.397565 3.375329 0
M  V30 42 F 8.276042 1.778631 2.529579 0
M  V30 43 F 7.298507 3.575688 1.794998 0
M  V30 44 C 7.043603 0.676817 0.257061 0
M  V30 45 H 4.443279 -0.601001 -1.521316 0
M  V30 46 H 2.489744 0.135393 -0.712293 0
M  V30 47 H -0.087299 1.870057 0.693628 0
M  V30 48 H 0.772135 -0.625008 1.198915 0
M  V30 49 H -0.417310 0.614336 -2.176548 0
M  V30 50 H -0.026049 -0.637952 -4.266264 0
M  V30 51 H 0.973804 -2.906989 -4.196113 0
M  V30 52 H 1.573194 -3.931493 -2.018664 0
M  V30 53 H 1.187440 -2.701290 0.083291 0
M  V30 54 H -1.960594 -0.005132 -0.050955 0
M  V30 55 H -1.269428 0.573076 2.744922 0
M  V30 56 H -3.178325 1.844948 2.841552 0
M  V30 57 H -3.624691 0.260577 2.302571 0
M  V30 58 H -2.288071 3.508996 1.012820 0
M  V30 59 H -3.117445 4.749797 -0.943896 0
M  V30 60 H -4.951244 3.840447 -2.304502 0
M  V30 61 H -6.591844 2.110899 -2.771098 0
M  V30 62 H -7.662982 -0.036035 -2.236983 0
M  V30 63 H -6.900561 -1.348444 -0.275473 0
M  V30 64 H -5.095806 -0.534203 1.129646 0
M  V30 65 H -0.558534 -1.549629 3.170654 0
M  V30 66 H -1.224805 -3.789103 3.938967 0
M  V30 67 H -2.792072 -5.161372 2.595430 0
M  V30 68 H -3.695337 -4.278210 0.460697 0
M  V30 69 H -3.046868 -2.037756 -0.331802 0
M  V30 70 H 4.400349 2.155448 1.791768 0
M  V30 71 H 8.132184 0.627374 0.319106 0
M  V30 END ATOM
M  V30 BEGIN BOND
M  V30 1 1 1 2
M  V30 2 1 2 3
M  V30 3 1 2 4
M  V30 4 1 2 5
M  V30 5 2 5 6
M  V30 6 1 6 7
M  V30 7 1 7 8
M  V30 8 1 8 9
M  V30 9 2 9 10
M  V30 10 1 9 11
M  V30 11 1 11 12
M  V30 12 1 12 13
M  V30 13 2 13 14
M  V30 14 1 14 15
M  V30 15 2 15 16
M  V30 16 1 16 17
M  V30 17 2 17 18
M  V30 18 1 12 19
M  V30 19 1 19 20
M  V30 20 1 20 21
M  V30 21 1 21 22
M  V30 22 2 22 23
M  V30 23 1 23 24
M  V30 24 2 24 25
M  V30 25 1 25 26
M  V30 26 2 26 27
M  V30 27 1 27 28
M  V30 28 2 28 29
M  V30 29 1 29 30
M  V30 30 2 30 31
M  V30 31 1 19 32
M  V30 32 2 32 33
M  V30 33 1 33 34
M  V30 34 2 34 35
M  V30 35 1 35 36
M  V30 36 2 36 37
M  V30 37 2 7 38
M  V30 38 1 38 39
M  V30 39 1 39 40
M  V30 40 1 40 41
M  V30 41 1 40 42
M  V30 42 1 40 43
M  V30 43 2 39 44
M  V30 44 1 44 5
M  V30 45 1 18 13
M  V30 46 1 31 22
M  V30 47 1 37 32
M  V30 48 1 31 26
M  V30 49 1 6 45
M  V30 50 1 8 46
M  V30 51 1 11 47
M  V30 52 1 12 48 CFG=1
M  V30 53 1 14 49
M  V30 54 1 15 50
M  V30 55 1 16 51
M  V30 56 1 17 52
M  V30 57 1 18 53
M  V30 58 1 19 54 CFG=3
M  V30 59 1 20 55
M  V30 60 1 21 56
M  V30 61 1 21 57
M  V30 62 1 23 58
M  V30 63 1 24 59
M  V30 64 1 25 60
M  V30 65 1 27 61
M  V30 66 1 28 62
M  V30 67 1 29 63
M  V30 68 1 30 64
M  V30 69 1 33 65
M  V30 70 1 34 66
M  V30 71 1 35 67
M  V30 72 1 36 68
M  V30 73 1 37 69
M  V30 74 1 38 70
M  V30 75 1 44 71
M  V30 END BOND
M  V30 END CTAB
M  END
>  <catalyst_id>  (1) 
NENLSRYHLKTXAW_FIRIVFDPSA_NONE

>  <source_smiles>  (1) 
FC(F)(F)c1cc(NC(=S)N[C@H](c2ccccc2)[C@H](NCc2cccc3ccccc23)c2ccccc2)cc(C(F)(F)F)c1

>  <axial_configuration>  (1) 
none

>  <inchikey>  (1) 
NENLSRYHLKTXAW-FIRIVFDPSA-N

>  <build_source>  (1) 
smiles

>  <rdkit_version>  (1) 
2025.09.6

>  <random_seed>  (1) 
42

>  <generated_at>  (1) 
2026-05-19T12:30:10

$$$$
