catalyst154
     RDKit          3D

  0  0  0  0  0  0  0  0  0  0999 V3000
M  V30 BEGIN CTAB
M  V30 COUNTS 58 60 0 0 0
M  V30 BEGIN ATOM
M  V30 1 C -3.527652 -0.484432 2.113221 0
M  V30 2 N -3.812423 -0.045001 0.758380 0
M  V30 3 C -4.314346 1.322162 0.730015 0
M  V30 4 C -2.787609 -0.352793 -0.275405 0 CFG=2
M  V30 5 C -2.925402 -1.835540 -0.696454 0
M  V30 6 C -1.868393 -2.758198 -0.712318 0
M  V30 7 C -2.071458 -4.080908 -1.122352 0
M  V30 8 C -3.331876 -4.506899 -1.530303 0
M  V30 9 C -4.394242 -3.610642 -1.531030 0
M  V30 10 C -4.191775 -2.291116 -1.121552 0
M  V30 11 C -1.286191 0.155679 -0.088156 0 CFG=2
M  V30 12 N -0.581712 -0.424112 1.071257 0
M  V30 13 C 0.764291 -0.602579 1.255907 0
M  V30 14 S 1.197594 -1.632021 2.496269 0
M  V30 15 N 1.572368 0.112703 0.410030 0
M  V30 16 C 2.950888 0.016281 0.125454 0
M  V30 17 C 3.718532 -1.132001 0.319689 0
M  V30 18 C 5.086859 -1.154688 -0.005988 0
M  V30 19 C 5.891205 -2.416537 0.201856 0
M  V30 20 F 5.719026 -3.307616 -0.812687 0
M  V30 21 F 5.564642 -3.078127 1.345054 0
M  V30 22 F 7.232474 -2.188104 0.274266 0
M  V30 23 C 5.675424 -0.010240 -0.565183 0
M  V30 24 C 4.914758 1.142915 -0.802857 0
M  V30 25 C 5.546831 2.381038 -1.391368 0
M  V30 26 F 6.635803 2.110116 -2.162638 0
M  V30 27 F 5.969793 3.250130 -0.434030 0
M  V30 28 F 4.693638 3.084081 -2.187146 0
M  V30 29 C 3.554560 1.141408 -0.452074 0
M  V30 30 C -1.157432 1.678971 -0.138428 0
M  V30 31 C -0.951645 2.453493 1.015901 0
M  V30 32 C -0.807682 3.839268 0.929663 0
M  V30 33 C -0.869036 4.471827 -0.309296 0
M  V30 34 C -1.075287 3.720689 -1.463619 0
M  V30 35 C -1.218010 2.334668 -1.380225 0
M  V30 36 H -2.758042 0.124534 2.597646 0
M  V30 37 H -3.222437 -1.535500 2.140718 0
M  V30 38 H -4.432165 -0.418314 2.729192 0
M  V30 39 H -3.623442 2.040353 1.175188 0
M  V30 40 H -4.547501 1.643871 -0.290743 0
M  V30 41 H -5.254619 1.385465 1.290129 0
M  V30 42 H -3.125128 0.159833 -1.190521 0
M  V30 43 H -0.861301 -2.487616 -0.413505 0
M  V30 44 H -1.238625 -4.780244 -1.121421 0
M  V30 45 H -3.484965 -5.535381 -1.845442 0
M  V30 46 H -5.382415 -3.935194 -1.845595 0
M  V30 47 H -5.039330 -1.606910 -1.123535 0
M  V30 48 H -0.719380 -0.205681 -0.959047 0
M  V30 49 H -1.131560 -1.039729 1.657359 0
M  V30 50 H 1.142236 0.967240 0.079601 0
M  V30 51 H 3.272448 -2.047706 0.697791 0
M  V30 52 H 6.735077 -0.021535 -0.826745 0
M  V30 53 H 2.968255 2.044084 -0.626300 0
M  V30 54 H -0.905218 1.983653 1.996818 0
M  V30 55 H -0.650389 4.425303 1.832058 0
M  V30 56 H -0.758969 5.551482 -0.374701 0
M  V30 57 H -1.125113 4.215547 -2.430676 0
M  V30 58 H -1.373932 1.768570 -2.297152 0
M  V30 END ATOM
M  V30 BEGIN BOND
M  V30 1 1 1 2
M  V30 2 1 2 3
M  V30 3 1 2 4
M  V30 4 1 4 5
M  V30 5 2 5 6
M  V30 6 1 6 7
M  V30 7 2 7 8
M  V30 8 1 8 9
M  V30 9 2 9 10
M  V30 10 1 4 11
M  V30 11 1 11 12
M  V30 12 1 12 13
M  V30 13 2 13 14
M  V30 14 1 13 15
M  V30 15 1 15 16
M  V30 16 2 16 17
M  V30 17 1 17 18
M  V30 18 1 18 19
M  V30 19 1 19 20
M  V30 20 1 19 21
M  V30 21 1 19 22
M  V30 22 2 18 23
M  V30 23 1 23 24
M  V30 24 1 24 25
M  V30 25 1 25 26
M  V30 26 1 25 27
M  V30 27 1 25 28
M  V30 28 2 24 29
M  V30 29 1 11 30
M  V30 30 2 30 31
M  V30 31 1 31 32
M  V30 32 2 32 33
M  V30 33 1 33 34
M  V30 34 2 34 35
M  V30 35 1 10 5
M  V30 36 1 29 16
M  V30 37 1 35 30
M  V30 38 1 1 36
M  V30 39 1 1 37
M  V30 40 1 1 38
M  V30 41 1 3 39
M  V30 42 1 3 40
M  V30 43 1 3 41
M  V30 44 1 4 42 CFG=3
M  V30 45 1 6 43
M  V30 46 1 7 44
M  V30 47 1 8 45
M  V30 48 1 9 46
M  V30 49 1 10 47
M  V30 50 1 11 48 CFG=3
M  V30 51 1 12 49
M  V30 52 1 15 50
M  V30 53 1 17 51
M  V30 54 1 23 52
M  V30 55 1 29 53
M  V30 56 1 31 54
M  V30 57 1 32 55
M  V30 58 1 33 56
M  V30 59 1 34 57
M  V30 60 1 35 58
M  V30 END BOND
M  V30 END CTAB
M  END
>  <catalyst_id>  (1) 
KGAOVNMFMGIVJT_FGZHOGPDSA_NONE

>  <source_smiles>  (1) 
CN(C)[C@H](c1ccccc1)[C@H](NC(=S)Nc1cc(C(F)(F)F)cc(C(F)(F)F)c1)c1ccccc1

>  <axial_configuration>  (1) 
none

>  <inchikey>  (1) 
KGAOVNMFMGIVJT-FGZHOGPDSA-N

>  <build_source>  (1) 
smiles

>  <rdkit_version>  (1) 
2025.09.6

>  <random_seed>  (1) 
42

>  <generated_at>  (1) 
2026-05-19T12:30:07

$$$$
