catalyst383
     RDKit          3D

  0  0  0  0  0  0  0  0  0  0999 V3000
M  V30 BEGIN CTAB
M  V30 COUNTS 64 66 0 0 0
M  V30 BEGIN ATOM
M  V30 1 C -2.300296 -3.744117 3.875317 0
M  V30 2 C -2.558770 -3.198108 2.479331 0
M  V30 3 C -3.510147 -2.000567 2.516826 0
M  V30 4 C -3.897278 -1.479349 1.126224 0
M  V30 5 N -2.790476 -1.073675 0.254107 0
M  V30 6 C -2.011662 0.093332 0.735663 0 CFG=2
M  V30 7 C -2.850521 1.362058 0.865388 0
M  V30 8 C -2.772871 2.138793 2.033922 0
M  V30 9 C -3.518564 3.312284 2.160998 0
M  V30 10 C -4.355447 3.723393 1.126162 0
M  V30 11 C -4.452014 2.959663 -0.034360 0
M  V30 12 C -3.707429 1.786307 -0.162877 0
M  V30 13 C -0.685129 0.320869 -0.106995 0 CFG=2
M  V30 14 N 0.237797 1.250801 0.569541 0
M  V30 15 C 1.602426 1.311137 0.518449 0
M  V30 16 S 2.328749 2.415581 1.538013 0
M  V30 17 N 2.188271 0.475973 -0.399100 0
M  V30 18 C 3.529229 0.068582 -0.558231 0
M  V30 19 C 3.907232 -0.389547 -1.826768 0
M  V30 20 C 5.213814 -0.838372 -2.081081 0
M  V30 21 C 5.608081 -1.284915 -3.468174 0
M  V30 22 F 4.590063 -1.894129 -4.137595 0
M  V30 23 F 6.638386 -2.175260 -3.469705 0
M  V30 24 F 6.005848 -0.246984 -4.252277 0
M  V30 25 C 6.148264 -0.827893 -1.035802 0
M  V30 26 C 5.779468 -0.409687 0.251953 0
M  V30 27 C 6.782851 -0.406672 1.381228 0
M  V30 28 F 7.386578 0.802308 1.536215 0
M  V30 29 F 6.230769 -0.713711 2.587352 0
M  V30 30 F 7.789850 -1.306428 1.196909 0
M  V30 31 C 4.464352 0.034709 0.476592 0
M  V30 32 C -0.877565 0.692029 -1.574045 0
M  V30 33 C -1.065968 -0.318782 -2.531314 0
M  V30 34 C -1.221815 -0.004446 -3.882709 0
M  V30 35 C -1.192859 1.324217 -4.298048 0
M  V30 36 C -1.012536 2.339671 -3.362757 0
M  V30 37 C -0.856989 2.027148 -2.011057 0
M  V30 38 H -3.230547 -4.080917 4.343825 0
M  V30 39 H -1.616102 -4.597089 3.827803 0
M  V30 40 H -1.848283 -2.981061 4.517041 0
M  V30 41 H -2.983949 -3.992678 1.855474 0
M  V30 42 H -1.600165 -2.909796 2.034333 0
M  V30 43 H -4.432803 -2.295449 3.033077 0
M  V30 44 H -3.071313 -1.195574 3.117455 0
M  V30 45 H -4.440030 -2.276269 0.602787 0
M  V30 46 H -4.622049 -0.665032 1.236001 0
M  V30 47 H -2.162805 -1.864956 0.129389 0
M  V30 48 H -1.652892 -0.163892 1.741468 0
M  V30 49 H -2.132185 1.834625 2.859164 0
M  V30 50 H -3.448635 3.905203 3.069490 0
M  V30 51 H -4.936565 4.636341 1.225684 0
M  V30 52 H -5.108313 3.274081 -0.841559 0
M  V30 53 H -3.800087 1.196944 -1.073922 0
M  V30 54 H -0.152547 -0.641625 -0.098165 0
M  V30 55 H -0.184250 1.970195 1.146271 0
M  V30 56 H 1.602870 0.317201 -1.210512 0
M  V30 57 H 3.186166 -0.384200 -2.644371 0
M  V30 58 H 7.171075 -1.160275 -1.222369 0
M  V30 59 H 4.187973 0.320155 1.488338 0
M  V30 60 H -1.102326 -1.363622 -2.230747 0
M  V30 61 H -1.372895 -0.797125 -4.611207 0
M  V30 62 H -1.318238 1.569438 -5.349474 0
M  V30 63 H -0.997507 3.378493 -3.682964 0
M  V30 64 H -0.727291 2.840668 -1.299602 0
M  V30 END ATOM
M  V30 BEGIN BOND
M  V30 1 1 1 2
M  V30 2 1 2 3
M  V30 3 1 3 4
M  V30 4 1 4 5
M  V30 5 1 5 6
M  V30 6 1 6 7
M  V30 7 2 7 8
M  V30 8 1 8 9
M  V30 9 2 9 10
M  V30 10 1 10 11
M  V30 11 2 11 12
M  V30 12 1 6 13
M  V30 13 1 13 14
M  V30 14 1 14 15
M  V30 15 2 15 16
M  V30 16 1 15 17
M  V30 17 1 17 18
M  V30 18 2 18 19
M  V30 19 1 19 20
M  V30 20 1 20 21
M  V30 21 1 21 22
M  V30 22 1 21 23
M  V30 23 1 21 24
M  V30 24 2 20 25
M  V30 25 1 25 26
M  V30 26 1 26 27
M  V30 27 1 27 28
M  V30 28 1 27 29
M  V30 29 1 27 30
M  V30 30 2 26 31
M  V30 31 1 13 32
M  V30 32 2 32 33
M  V30 33 1 33 34
M  V30 34 2 34 35
M  V30 35 1 35 36
M  V30 36 2 36 37
M  V30 37 1 12 7
M  V30 38 1 31 18
M  V30 39 1 37 32
M  V30 40 1 1 38
M  V30 41 1 1 39
M  V30 42 1 1 40
M  V30 43 1 2 41
M  V30 44 1 2 42
M  V30 45 1 3 43
M  V30 46 1 3 44
M  V30 47 1 4 45
M  V30 48 1 4 46
M  V30 49 1 5 47
M  V30 50 1 6 48 CFG=1
M  V30 51 1 8 49
M  V30 52 1 9 50
M  V30 53 1 10 51
M  V30 54 1 11 52
M  V30 55 1 12 53
M  V30 56 1 13 54 CFG=3
M  V30 57 1 14 55
M  V30 58 1 17 56
M  V30 59 1 19 57
M  V30 60 1 25 58
M  V30 61 1 31 59
M  V30 62 1 33 60
M  V30 63 1 34 61
M  V30 64 1 35 62
M  V30 65 1 36 63
M  V30 66 1 37 64
M  V30 END BOND
M  V30 END CTAB
M  END
>  <catalyst_id>  (1) 
WQESUJKMAWNQSF_DNQXCXABSA_NONE

>  <source_smiles>  (1) 
CCCCN[C@H](c1ccccc1)[C@H](NC(=S)Nc1cc(C(F)(F)F)cc(C(F)(F)F)c1)c1ccccc1

>  <axial_configuration>  (1) 
none

>  <inchikey>  (1) 
WQESUJKMAWNQSF-DNQXCXABSA-N

>  <build_source>  (1) 
smiles

>  <rdkit_version>  (1) 
2025.09.6

>  <random_seed>  (1) 
42

>  <generated_at>  (1) 
2026-05-19T12:30:11

$$$$
