catalyst37
     RDKit          3D

  0  0  0  0  0  0  0  0  0  0999 V3000
M  V30 BEGIN CTAB
M  V30 COUNTS 43 45 0 0 0
M  V30 BEGIN ATOM
M  V30 1 N 0.867619 0.838651 1.107292 0
M  V30 2 C 1.061532 -0.390278 0.297571 0 CFG=1
M  V30 3 C 2.274409 -1.212851 0.788557 0
M  V30 4 C 3.598455 -0.502262 0.612887 0
M  V30 5 C 4.273167 0.028046 1.721120 0
M  V30 6 C 5.486694 0.697374 1.556419 0
M  V30 7 C 6.037839 0.841332 0.284751 0
M  V30 8 C 5.377678 0.314095 -0.823370 0
M  V30 9 C 4.163895 -0.355475 -0.661281 0
M  V30 10 C -0.227663 -1.249750 0.374690 0
M  V30 11 O -0.228799 -2.327668 0.977045 0
M  V30 12 N -1.391256 -0.749322 -0.222478 0
M  V30 13 C -2.569829 -1.622490 -0.208788 0
M  V30 14 C -3.900730 -0.873903 -0.383190 0 CFG=1
M  V30 15 C -4.245206 -0.001637 0.840217 0
M  V30 16 N -3.305371 1.102914 1.067716 0
M  V30 17 C -3.096810 1.892568 -0.151797 0
M  V30 18 C -2.729872 1.043704 -1.385159 0 CFG=2
M  V30 19 C -3.824863 0.007482 -1.627730 0
M  V30 20 C -1.375745 0.332009 -1.218808 0
M  V30 21 H 0.721962 0.562561 2.079738 0
M  V30 22 H 1.742399 1.366084 1.103668 0
M  V30 23 H 1.226620 -0.111320 -0.748848 0
M  V30 24 H 2.325063 -2.164394 0.241775 0
M  V30 25 H 2.142156 -1.491862 1.842921 0
M  V30 26 H 3.859400 -0.078395 2.721597 0
M  V30 27 H 6.004115 1.104089 2.421531 0
M  V30 28 H 6.984104 1.360662 0.157915 0
M  V30 29 H 5.810368 0.421926 -1.814614 0
M  V30 30 H 3.665026 -0.765689 -1.536363 0
M  V30 31 H -2.594243 -2.203244 0.720562 0
M  V30 32 H -2.437747 -2.338624 -1.029907 0
M  V30 33 H -4.699705 -1.614114 -0.512876 0
M  V30 34 H -5.253459 0.414122 0.719868 0
M  V30 35 H -4.276652 -0.624193 1.741890 0
M  V30 36 H -2.400250 0.692949 1.322019 0
M  V30 37 H -4.007866 2.467327 -0.360248 0
M  V30 38 H -2.307321 2.628557 0.039643 0
M  V30 39 H -2.665575 1.710693 -2.253581 0
M  V30 40 H -4.787564 0.501226 -1.807554 0
M  V30 41 H -3.600466 -0.593841 -2.516931 0
M  V30 42 H -0.611249 1.074690 -0.983612 0
M  V30 43 H -1.084258 -0.131748 -2.169675 0
M  V30 END ATOM
M  V30 BEGIN BOND
M  V30 1 1 1 2
M  V30 2 1 2 3
M  V30 3 1 3 4
M  V30 4 2 4 5
M  V30 5 1 5 6
M  V30 6 2 6 7
M  V30 7 1 7 8
M  V30 8 2 8 9
M  V30 9 1 2 10
M  V30 10 2 10 11
M  V30 11 1 10 12
M  V30 12 1 12 13
M  V30 13 1 13 14
M  V30 14 1 14 15
M  V30 15 1 15 16
M  V30 16 1 16 17
M  V30 17 1 17 18
M  V30 18 1 18 19
M  V30 19 1 18 20
M  V30 20 1 9 4
M  V30 21 1 20 12
M  V30 22 1 19 14
M  V30 23 1 1 21
M  V30 24 1 1 22
M  V30 25 1 2 23 CFG=3
M  V30 26 1 3 24
M  V30 27 1 3 25
M  V30 28 1 5 26
M  V30 29 1 6 27
M  V30 30 1 7 28
M  V30 31 1 8 29
M  V30 32 1 9 30
M  V30 33 1 13 31
M  V30 34 1 13 32
M  V30 35 1 14 33 CFG=3
M  V30 36 1 15 34
M  V30 37 1 15 35
M  V30 38 1 16 36
M  V30 39 1 17 37
M  V30 40 1 17 38
M  V30 41 1 18 39 CFG=3
M  V30 42 1 19 40
M  V30 43 1 19 41
M  V30 44 1 20 42
M  V30 45 1 20 43
M  V30 END BOND
M  V30 END CTAB
M  END
>  <catalyst_id>  (1) 
CWQVRTMBSPRHFU_NRXISQOPSA_NONE

>  <source_smiles>  (1) 
N[C@@H](Cc1ccccc1)C(=O)N1CC2CNCC(C2)C1

>  <axial_configuration>  (1) 
none

>  <inchikey>  (1) 
CWQVRTMBSPRHFU-NRXISQOPSA-N

>  <build_source>  (1) 
smiles

>  <rdkit_version>  (1) 
2025.09.6

>  <random_seed>  (1) 
42

>  <generated_at>  (1) 
2026-05-19T12:37:17

$$$$
