catalyst343
     RDKit          3D

  0  0  0  0  0  0  0  0  0  0999 V3000
M  V30 BEGIN CTAB
M  V30 COUNTS 58 60 0 0 0
M  V30 BEGIN ATOM
M  V30 1 C -3.202561 -0.283085 -2.094646 0
M  V30 2 C -1.944835 0.610580 -1.996254 0
M  V30 3 C -1.048029 0.331889 -3.221521 0
M  V30 4 C -2.393617 2.092765 -2.073290 0
M  V30 5 Si -0.989800 0.302899 -0.270859 0 VAL=4
M  V30 6 O 0.455171 1.131089 -0.124536 0
M  V30 7 C 1.591094 0.807896 -0.922293 0 CFG=1
M  V30 8 C 2.111747 2.066746 -1.618904 0
M  V30 9 N 3.485992 1.735623 -1.977482 0
M  V30 10 C 4.005782 0.896796 -0.887021 0
M  V30 11 C 2.801068 0.438531 -0.042577 0 CFG=2
M  V30 12 N 2.840206 -1.012432 0.254465 0
M  V30 13 S 3.937751 -1.563996 1.429765 0
M  V30 14 O 5.235188 -1.030220 1.054831 0
M  V30 15 O 3.736326 -3.001262 1.470426 0
M  V30 16 C 3.374801 -0.797612 3.045996 0
M  V30 17 F 4.023419 -1.322513 4.121440 0
M  V30 18 F 3.591887 0.549117 3.068132 0
M  V30 19 F 2.040425 -0.978009 3.254320 0
M  V30 20 C -2.097148 0.956725 1.146179 0
M  V30 21 C -3.228535 0.241040 1.579948 0
M  V30 22 C -4.031644 0.733463 2.611159 0
M  V30 23 C -3.720419 1.945130 3.222910 0
M  V30 24 C -2.604985 2.667238 2.806254 0
M  V30 25 C -1.797975 2.179218 1.775988 0
M  V30 26 C -0.626976 -1.490023 0.200420 0
M  V30 27 C -0.420557 -1.838902 1.551788 0
M  V30 28 C -0.088273 -3.144251 1.921670 0
M  V30 29 C 0.050167 -4.128732 0.950640 0
M  V30 30 C -0.153009 -3.810643 -0.388142 0
M  V30 31 C -0.489566 -2.505603 -0.760728 0
M  V30 32 H -3.727993 -0.113863 -3.042081 0
M  V30 33 H -3.915879 -0.072775 -1.290895 0
M  V30 34 H -2.951374 -1.347790 -2.047878 0
M  V30 35 H -0.189945 1.008282 -3.256685 0
M  V30 36 H -1.606299 0.479853 -4.153887 0
M  V30 37 H -0.665256 -0.691206 -3.236594 0
M  V30 38 H -1.539381 2.775858 -1.996018 0
M  V30 39 H -3.098154 2.347529 -1.273498 0
M  V30 40 H -2.896633 2.300160 -3.025193 0
M  V30 41 H 1.392611 0.016124 -1.658375 0
M  V30 42 H 1.519161 2.324987 -2.500381 0
M  V30 43 H 2.081271 2.930372 -0.942351 0
M  V30 44 H 4.054245 2.573354 -2.096387 0
M  V30 45 H 4.558531 0.058334 -1.322879 0
M  V30 46 H 4.698648 1.472917 -0.263428 0
M  V30 47 H 2.737757 1.004287 0.893503 0
M  V30 48 H 1.937506 -1.489590 0.332880 0
M  V30 49 H -3.496355 -0.712984 1.127860 0
M  V30 50 H -4.900792 0.168202 2.937807 0
M  V30 51 H -4.346728 2.326109 4.025051 0
M  V30 52 H -2.361543 3.612849 3.283711 0
M  V30 53 H -0.932716 2.766678 1.472253 0
M  V30 54 H -0.506676 -1.093712 2.344044 0
M  V30 55 H 0.067836 -3.388751 2.969683 0
M  V30 56 H 0.318883 -5.142672 1.235893 0
M  V30 57 H -0.043608 -4.580931 -1.148218 0
M  V30 58 H -0.630213 -2.311085 -1.819932 0
M  V30 END ATOM
M  V30 BEGIN BOND
M  V30 1 1 1 2
M  V30 2 1 2 3
M  V30 3 1 2 4
M  V30 4 1 2 5
M  V30 5 1 5 6
M  V30 6 1 6 7
M  V30 7 1 7 8
M  V30 8 1 8 9
M  V30 9 1 9 10
M  V30 10 1 10 11
M  V30 11 1 11 12
M  V30 12 1 12 13
M  V30 13 2 13 14
M  V30 14 2 13 15
M  V30 15 1 13 16
M  V30 16 1 16 17
M  V30 17 1 16 18
M  V30 18 1 16 19
M  V30 19 1 5 20
M  V30 20 2 20 21
M  V30 21 1 21 22
M  V30 22 2 22 23
M  V30 23 1 23 24
M  V30 24 2 24 25
M  V30 25 1 5 26
M  V30 26 2 26 27
M  V30 27 1 27 28
M  V30 28 2 28 29
M  V30 29 1 29 30
M  V30 30 2 30 31
M  V30 31 1 11 7
M  V30 32 1 25 20
M  V30 33 1 31 26
M  V30 34 1 1 32
M  V30 35 1 1 33
M  V30 36 1 1 34
M  V30 37 1 3 35
M  V30 38 1 3 36
M  V30 39 1 3 37
M  V30 40 1 4 38
M  V30 41 1 4 39
M  V30 42 1 4 40
M  V30 43 1 7 41 CFG=3
M  V30 44 1 8 42
M  V30 45 1 8 43
M  V30 46 1 9 44
M  V30 47 1 10 45
M  V30 48 1 10 46
M  V30 49 1 11 47 CFG=1
M  V30 50 1 12 48
M  V30 51 1 21 49
M  V30 52 1 22 50
M  V30 53 1 23 51
M  V30 54 1 24 52
M  V30 55 1 25 53
M  V30 56 1 27 54
M  V30 57 1 28 55
M  V30 58 1 29 56
M  V30 59 1 30 57
M  V30 60 1 31 58
M  V30 END BOND
M  V30 END CTAB
M  END
>  <catalyst_id>  (1) 
SWRCQAAOPFZDNH_OALUTQOASA_NONE

>  <source_smiles>  (1) 
CC(C)(C)[Si](O[C@H]1CNC[C@@H]1NS(=O)(=O)C(F)(F)F)(c1ccccc1)c1ccccc1

>  <axial_configuration>  (1) 
none

>  <inchikey>  (1) 
SWRCQAAOPFZDNH-OALUTQOASA-N

>  <build_source>  (1) 
smiles

>  <rdkit_version>  (1) 
2025.09.6

>  <random_seed>  (1) 
42

>  <generated_at>  (1) 
2026-05-19T12:31:52

$$$$
