catalyst197
     RDKit          3D

  0  0  0  0  0  0  0  0  0  0999 V3000
M  V30 BEGIN CTAB
M  V30 COUNTS 35 35 0 0 0
M  V30 BEGIN ATOM
M  V30 1 C -2.708309 0.176667 0.611885 0
M  V30 2 C -1.878930 0.158698 -0.656980 0
M  V30 3 N -0.481193 -0.171554 -0.370266 0 CHG=1
M  V30 4 C 0.078731 -1.439432 -0.391027 0
M  V30 5 C 1.397434 -1.293042 -0.065669 0
M  V30 6 N 1.609619 0.059712 0.144412 0
M  V30 7 C 2.878328 0.672940 0.515112 0
M  V30 8 C 0.461279 0.726355 -0.043746 0
M  V30 9 O 2.575384 -0.641332 -1.090547 0
M  V30 10 C 2.041158 0.039195 -0.169182 0
M  V30 11 O 2.412267 1.142365 0.340102 0 CHG=-1
M  V30 12 C 0.726560 -0.569128 0.455801 0 CFG=2
M  V30 13 C -0.283678 -1.039220 -0.584967 0
M  V30 14 C -1.490137 -0.127548 -0.409494 0
M  V30 15 C -0.939248 1.074670 0.326342 0
M  V30 16 N 0.008345 0.475638 1.264386 0
M  V30 17 H -3.748708 0.429213 0.387078 0
M  V30 18 H -2.688081 -0.800860 1.104142 0
M  V30 19 H -2.318582 0.914045 1.320928 0
M  V30 20 H -1.906185 1.138861 -1.145477 0
M  V30 21 H -2.275733 -0.577259 -1.364704 0
M  V30 22 H -0.540251 -2.285760 -0.635023 0
M  V30 23 H 2.219971 -1.978653 0.045341 0
M  V30 24 H 2.764841 1.758799 0.570726 0
M  V30 25 H 3.187998 0.289217 1.490806 0
M  V30 26 H 3.629762 0.425272 -0.239360 0
M  V30 27 H 0.318009 1.796783 0.051431 0
M  V30 28 H 1.028209 -1.387758 1.118271 0
M  V30 29 H -0.574792 -2.082368 -0.420542 0
M  V30 30 H 0.097270 -0.954826 -1.608214 0
M  V30 31 H -1.945927 0.142307 -1.366862 0
M  V30 32 H -2.252414 -0.631662 0.197490 0
M  V30 33 H -1.721963 1.631187 0.849251 0
M  V30 34 H -0.430594 1.757459 -0.364540 0
M  V30 35 H 0.749561 1.171020 1.462708 0
M  V30 END ATOM
M  V30 BEGIN BOND
M  V30 1 1 1 2
M  V30 2 1 2 3
M  V30 3 1 3 4
M  V30 4 2 4 5
M  V30 5 1 5 6
M  V30 6 1 6 7
M  V30 7 1 6 8
M  V30 8 2 9 10
M  V30 9 1 10 11
M  V30 10 1 10 12
M  V30 11 1 12 13
M  V30 12 1 13 14
M  V30 13 1 14 15
M  V30 14 1 15 16
M  V30 15 2 8 3
M  V30 16 1 16 12
M  V30 17 1 1 17
M  V30 18 1 1 18
M  V30 19 1 1 19
M  V30 20 1 2 20
M  V30 21 1 2 21
M  V30 22 1 4 22
M  V30 23 1 5 23
M  V30 24 1 7 24
M  V30 25 1 7 25
M  V30 26 1 7 26
M  V30 27 1 8 27
M  V30 28 1 12 28 CFG=1
M  V30 29 1 13 29
M  V30 30 1 13 30
M  V30 31 1 14 31
M  V30 32 1 14 32
M  V30 33 1 15 33
M  V30 34 1 15 34
M  V30 35 1 16 35
M  V30 END BOND
M  V30 END CTAB
M  END
>  <catalyst_id>  (1) 
MDQLULFJEJPGQQ_VWMHFEHESA_NONE

>  <source_smiles>  (1) 
CC[n+]1ccn(C)c1.O=C([O-])[C@@H]1CCCN1

>  <axial_configuration>  (1) 
none

>  <inchikey>  (1) 
MDQLULFJEJPGQQ-VWMHFEHESA-M

>  <build_source>  (1) 
smiles

>  <rdkit_version>  (1) 
2025.09.6

>  <random_seed>  (1) 
42

>  <generated_at>  (1) 
2026-05-19T12:30:42

$$$$
