catalyst276
     RDKit          3D

  0  0  0  0  0  0  0  0  0  0999 V3000
M  V30 BEGIN CTAB
M  V30 COUNTS 64 69 0 0 0
M  V30 BEGIN ATOM
M  V30 1 C -1.982118 -4.395001 -1.554937 0
M  V30 2 C -1.814925 -3.138767 -1.121921 0
M  V30 3 C -2.764585 -2.431016 -0.186098 0 CFG=1
M  V30 4 C -2.039841 -1.879187 1.069461 0
M  V30 5 N -2.465433 -0.493919 1.399384 0
M  V30 6 C -3.946357 -0.479738 1.486935 0
M  V30 7 C -4.596146 -0.781663 0.125791 0
M  V30 8 C -3.513332 -1.255646 -0.862056 0 CFG=1
M  V30 9 C -2.540519 -0.078426 -1.073033 0
M  V30 10 C -2.057337 0.449753 0.301908 0 CFG=2
M  V30 11 C -0.536119 0.829468 0.347037 0 CFG=1
M  V30 12 O 0.263163 -0.189024 -0.282116 0
M  V30 13 C 1.560840 -0.303967 0.310669 0
M  V30 14 C 2.467848 -1.229464 -0.479825 0
M  V30 15 C 2.083723 -1.666378 -1.760532 0
M  V30 16 C 2.900180 -2.509238 -2.506949 0
M  V30 17 C 4.123000 -2.924000 -1.990605 0
M  V30 18 C 4.550469 -2.497674 -0.725855 0
M  V30 19 C 5.794531 -2.920414 -0.228559 0
M  V30 20 C 6.247449 -2.504905 1.021742 0
M  V30 21 C 5.461274 -1.658787 1.790925 0
M  V30 22 C 4.220641 -1.230855 1.310779 0
M  V30 23 C 3.728440 -1.637564 0.047868 0
M  V30 24 C -0.295356 2.179491 -0.331576 0
M  V30 25 C 0.091788 2.214146 -1.678484 0
M  V30 26 C 0.306025 3.435257 -2.282909 0
M  V30 27 N 0.156611 4.616613 -1.655155 0
M  V30 28 C -0.224927 4.605550 -0.369865 0
M  V30 29 C -0.381537 5.831835 0.263377 0
M  V30 30 C -0.782497 5.932904 1.596332 0
M  V30 31 C -1.034188 4.773751 2.307306 0
M  V30 32 O -1.433045 4.808196 3.609296 0
M  V30 33 C -0.886551 3.528669 1.705694 0
M  V30 34 C -0.474082 3.413939 0.355212 0
M  V30 35 H -1.255530 -4.851827 -2.220190 0
M  V30 36 H -2.836887 -4.994726 -1.258813 0
M  V30 37 H -0.933792 -2.589891 -1.447486 0
M  V30 38 H -3.519423 -3.155556 0.152813 0
M  V30 39 H -2.271964 -2.527797 1.925170 0
M  V30 40 H -0.950291 -1.931846 0.978466 0
M  V30 41 H -4.289691 0.494416 1.856640 0
M  V30 42 H -4.280095 -1.209542 2.235586 0
M  V30 43 H -5.090876 0.116258 -0.263804 0
M  V30 44 H -5.367512 -1.551559 0.244563 0
M  V30 45 H -3.966043 -1.558891 -1.812568 0
M  V30 46 H -1.713629 -0.388666 -1.718384 0
M  V30 47 H -3.058470 0.730714 -1.603705 0
M  V30 48 H -2.605414 1.381470 0.504356 0
M  V30 49 H -0.229445 0.898303 1.398213 0
M  V30 50 H 2.034591 0.683360 0.361782 0
M  V30 51 H 1.425173 -0.706450 1.320839 0
M  V30 52 H 1.134587 -1.351463 -2.187916 0
M  V30 53 H 2.583110 -2.842144 -3.491512 0
M  V30 54 H 4.746704 -3.583472 -2.590097 0
M  V30 55 H 6.426221 -3.581236 -0.818584 0
M  V30 56 H 7.212688 -2.840735 1.390743 0
M  V30 57 H 5.809303 -1.328225 2.766094 0
M  V30 58 H 3.642449 -0.566032 1.947448 0
M  V30 59 H 0.232512 1.303124 -2.251863 0
M  V30 60 H 0.614148 3.498218 -3.322661 0
M  V30 61 H -0.185149 6.739383 -0.303818 0
M  V30 62 H -0.891180 6.914023 2.046467 0
M  V30 63 H -1.495998 5.734977 3.894313 0
M  V30 64 H -1.107182 2.651872 2.308668 0
M  V30 END ATOM
M  V30 BEGIN BOND
M  V30 1 2 1 2
M  V30 2 1 2 3
M  V30 3 1 3 4
M  V30 4 1 4 5
M  V30 5 1 5 6
M  V30 6 1 6 7
M  V30 7 1 7 8
M  V30 8 1 8 9
M  V30 9 1 9 10
M  V30 10 1 10 11
M  V30 11 1 11 12
M  V30 12 1 12 13
M  V30 13 1 13 14
M  V30 14 2 14 15
M  V30 15 1 15 16
M  V30 16 2 16 17
M  V30 17 1 17 18
M  V30 18 2 18 19
M  V30 19 1 19 20
M  V30 20 2 20 21
M  V30 21 1 21 22
M  V30 22 2 22 23
M  V30 23 1 11 24
M  V30 24 2 24 25
M  V30 25 1 25 26
M  V30 26 2 26 27
M  V30 27 1 27 28
M  V30 28 2 28 29
M  V30 29 1 29 30
M  V30 30 2 30 31
M  V30 31 1 31 32
M  V30 32 1 31 33
M  V30 33 2 33 34
M  V30 34 1 8 3
M  V30 35 1 23 14
M  V30 36 1 34 24
M  V30 37 1 10 5
M  V30 38 1 23 18
M  V30 39 1 34 28
M  V30 40 1 1 35
M  V30 41 1 1 36
M  V30 42 1 2 37
M  V30 43 1 3 38 CFG=1
M  V30 44 1 4 39
M  V30 45 1 4 40
M  V30 46 1 6 41
M  V30 47 1 6 42
M  V30 48 1 7 43
M  V30 49 1 7 44
M  V30 50 1 8 45 CFG=3
M  V30 51 1 9 46
M  V30 52 1 9 47
M  V30 53 1 10 48 CFG=1
M  V30 54 1 11 49 CFG=1
M  V30 55 1 13 50
M  V30 56 1 13 51
M  V30 57 1 15 52
M  V30 58 1 16 53
M  V30 59 1 17 54
M  V30 60 1 19 55
M  V30 61 1 20 56
M  V30 62 1 21 57
M  V30 63 1 22 58
M  V30 64 1 25 59
M  V30 65 1 26 60
M  V30 66 1 29 61
M  V30 67 1 30 62
M  V30 68 1 32 63
M  V30 69 1 33 64
M  V30 END BOND
M  V30 END CTAB
M  END
>  <catalyst_id>  (1) 
QLOHWTGSVUMFPG_SIWWEPCFSA_NONE

>  <source_smiles>  (1) 
C=C[C@H]1CN2CC[C@H]1C[C@@H]2[C@@H](OCc1cccc2ccccc12)c1ccnc2ccc(O)cc12

>  <axial_configuration>  (1) 
none

>  <inchikey>  (1) 
QLOHWTGSVUMFPG-SIWWEPCFSA-N

>  <build_source>  (1) 
smiles

>  <rdkit_version>  (1) 
2025.09.6

>  <random_seed>  (1) 
42

>  <generated_at>  (1) 
2026-05-19T12:34:08

$$$$
