catalyst395
     RDKit          3D

  0  0  0  0  0  0  0  0  0  0999 V3000
M  V30 BEGIN CTAB
M  V30 COUNTS 68 72 0 0 0
M  V30 BEGIN ATOM
M  V30 1 C -6.088367 2.725367 -2.233809 0
M  V30 2 C -4.716136 2.120040 -2.500721 0
M  V30 3 C -3.596675 2.823827 -1.714842 0 CFG=1
M  V30 4 C -3.692286 2.579044 -0.189053 0
M  V30 5 N -2.419986 2.054198 0.367466 0
M  V30 6 C -1.347399 3.033616 0.080522 0
M  V30 7 C -1.166186 3.259220 -1.427067 0
M  V30 8 C -2.186670 2.402065 -2.196475 0 CFG=1
M  V30 9 C -1.902210 0.938669 -1.819187 0
M  V30 10 C -2.131764 0.740723 -0.302761 0 CFG=1
M  V30 11 C -0.956859 -0.047528 0.385438 0 CFG=1
M  V30 12 N -1.056895 0.084190 1.851124 0
M  V30 13 C -0.005193 0.011323 2.732946 0
M  V30 14 S -0.142921 0.890102 4.144010 0
M  V30 15 N 1.015622 -0.811752 2.331850 0
M  V30 16 C 2.368982 -0.892909 2.716753 0
M  V30 17 C 3.060506 -2.055406 2.351359 0
M  V30 18 C 4.416796 -2.209991 2.655374 0
M  V30 19 C 5.116783 -1.192943 3.316007 0
M  V30 20 C 6.574080 -1.362062 3.668302 0
M  V30 21 F 7.258196 -0.183733 3.690657 0
M  V30 22 F 7.245439 -2.161148 2.791958 0
M  V30 23 F 6.751034 -1.921817 4.896150 0
M  V30 24 C 4.426499 -0.025238 3.668045 0
M  V30 25 C 3.068488 0.126759 3.360335 0
M  V30 26 C -0.941513 -1.515652 -0.036719 0
M  V30 27 C -2.002898 -2.333209 0.383896 0
M  V30 28 C -2.016845 -3.659646 0.011500 0
M  V30 29 N -1.057489 -4.229059 -0.738866 0
M  V30 30 C -0.025336 -3.472073 -1.136053 0
M  V30 31 C 0.961185 -4.088742 -1.888088 0
M  V30 32 C 2.092638 -3.399971 -2.324550 0
M  V30 33 C 2.258393 -2.060158 -2.004673 0
M  V30 34 O 3.413433 -1.496493 -2.467047 0
M  V30 35 C 3.749183 -0.207086 -1.967888 0
M  V30 36 C 1.264203 -1.413436 -1.268849 0
M  V30 37 C 0.102828 -2.098572 -0.814962 0
M  V30 38 H -6.103346 3.789288 -2.491019 0
M  V30 39 H -6.378358 2.621581 -1.184210 0
M  V30 40 H -6.845973 2.220673 -2.841848 0
M  V30 41 H -4.509576 2.197719 -3.574974 0
M  V30 42 H -4.748134 1.051825 -2.258174 0
M  V30 43 H -3.694441 3.904164 -1.893467 0
M  V30 44 H -3.949528 3.517845 0.318347 0
M  V30 45 H -4.503504 1.884903 0.061918 0
M  V30 46 H -1.581445 3.986128 0.572903 0
M  V30 47 H -0.401174 2.708822 0.528068 0
M  V30 48 H -1.304877 4.319980 -1.667425 0
M  V30 49 H -0.145764 2.990692 -1.725947 0
M  V30 50 H -2.072718 2.554132 -3.275171 0
M  V30 51 H -0.872695 0.692894 -2.104191 0
M  V30 52 H -2.553495 0.263290 -2.385424 0
M  V30 53 H -3.040212 0.135201 -0.177427 0
M  V30 54 H -0.019559 0.448826 0.125300 0
M  V30 55 H -1.728173 0.800614 2.125886 0
M  V30 56 H 0.688594 -1.599727 1.788159 0
M  V30 57 H 2.551078 -2.864580 1.831497 0
M  V30 58 H 4.924100 -3.130927 2.370637 0
M  V30 59 H 4.945009 0.784384 4.180744 0
M  V30 60 H 2.597222 1.069046 3.617269 0
M  V30 61 H -2.805725 -1.944189 1.004171 0
M  V30 62 H -2.822165 -4.321383 0.317837 0
M  V30 63 H 0.852282 -5.142246 -2.137036 0
M  V30 64 H 2.849450 -3.919736 -2.906880 0
M  V30 65 H 3.050972 0.549542 -2.340170 0
M  V30 66 H 3.791871 -0.201995 -0.873338 0
M  V30 67 H 4.745748 0.046893 -2.341594 0
M  V30 68 H 1.393875 -0.364176 -1.036525 0
M  V30 END ATOM
M  V30 BEGIN BOND
M  V30 1 1 1 2
M  V30 2 1 2 3
M  V30 3 1 3 4
M  V30 4 1 4 5
M  V30 5 1 5 6
M  V30 6 1 6 7
M  V30 7 1 7 8
M  V30 8 1 8 9
M  V30 9 1 9 10
M  V30 10 1 10 11
M  V30 11 1 11 12
M  V30 12 1 12 13
M  V30 13 2 13 14
M  V30 14 1 13 15
M  V30 15 1 15 16
M  V30 16 2 16 17
M  V30 17 1 17 18
M  V30 18 2 18 19
M  V30 19 1 19 20
M  V30 20 1 20 21
M  V30 21 1 20 22
M  V30 22 1 20 23
M  V30 23 1 19 24
M  V30 24 2 24 25
M  V30 25 1 11 26
M  V30 26 2 26 27
M  V30 27 1 27 28
M  V30 28 2 28 29
M  V30 29 1 29 30
M  V30 30 2 30 31
M  V30 31 1 31 32
M  V30 32 2 32 33
M  V30 33 1 33 34
M  V30 34 1 34 35
M  V30 35 1 33 36
M  V30 36 2 36 37
M  V30 37 1 8 3
M  V30 38 1 25 16
M  V30 39 1 37 26
M  V30 40 1 10 5
M  V30 41 1 37 30
M  V30 42 1 1 38
M  V30 43 1 1 39
M  V30 44 1 1 40
M  V30 45 1 2 41
M  V30 46 1 2 42
M  V30 47 1 3 43 CFG=1
M  V30 48 1 4 44
M  V30 49 1 4 45
M  V30 50 1 6 46
M  V30 51 1 6 47
M  V30 52 1 7 48
M  V30 53 1 7 49
M  V30 54 1 8 50 CFG=3
M  V30 55 1 9 51
M  V30 56 1 9 52
M  V30 57 1 10 53 CFG=3
M  V30 58 1 11 54 CFG=3
M  V30 59 1 12 55
M  V30 60 1 15 56
M  V30 61 1 17 57
M  V30 62 1 18 58
M  V30 63 1 24 59
M  V30 64 1 25 60
M  V30 65 1 27 61
M  V30 66 1 28 62
M  V30 67 1 31 63
M  V30 68 1 32 64
M  V30 69 1 35 65
M  V30 70 1 35 66
M  V30 71 1 35 67
M  V30 72 1 36 68
M  V30 END BOND
M  V30 END CTAB
M  END
>  <catalyst_id>  (1) 
XBYARWAXFOVKBC_JZWJADFXSA_NONE

>  <source_smiles>  (1) 
CC[C@H]1CN2CC[C@H]1C[C@H]2[C@@H](NC(=S)Nc1ccc(C(F)(F)F)cc1)c1ccnc2ccc(OC)cc12

>  <axial_configuration>  (1) 
none

>  <inchikey>  (1) 
XBYARWAXFOVKBC-JZWJADFXSA-N

>  <build_source>  (1) 
smiles

>  <rdkit_version>  (1) 
2025.09.6

>  <random_seed>  (1) 
42

>  <generated_at>  (1) 
2026-05-19T12:37:12

$$$$
