catalyst297
     RDKit          3D

  0  0  0  0  0  0  0  0  0  0999 V3000
M  V30 BEGIN CTAB
M  V30 COUNTS 138 145 0 0 0
M  V30 BEGIN ATOM
M  V30 1 C 4.811981 -0.390063 1.769454 0
M  V30 2 N 6.040945 -0.920972 1.181249 0
M  V30 3 C 5.870922 -2.237861 0.568960 0
M  V30 4 C 5.368284 -3.320531 1.503925 0
M  V30 5 C 3.990978 -3.604681 1.570391 0
M  V30 6 C 3.502778 -4.645428 2.358259 0
M  V30 7 C 4.412630 -5.369121 3.141501 0
M  V30 8 C 5.787818 -5.072797 3.134468 0
M  V30 9 C 6.746552 -5.873409 3.979721 0
M  V30 10 F 7.831034 -5.158000 4.389578 0
M  V30 11 F 7.239554 -6.954178 3.313459 0
M  V30 12 F 6.173781 -6.365139 5.114913 0
M  V30 13 C 6.257497 -4.050639 2.299337 0
M  V30 14 N 2.144825 -5.014263 2.464099 0
M  V30 15 C 1.000102 -4.610045 1.823591 0
M  V30 16 S -0.430855 -5.143405 2.515262 0
M  V30 17 N 1.152985 -3.899446 0.664376 0
M  V30 18 C 0.282129 -3.026216 -0.027676 0
M  V30 19 C -0.878811 -2.475813 0.516956 0
M  V30 20 C -1.706862 -1.627930 -0.238506 0
M  V30 21 C -1.316679 -1.268926 -1.534666 0
M  V30 22 C -0.133869 -1.771880 -2.089547 0
M  V30 23 C 0.245600 -1.418369 -3.504896 0
M  V30 24 F -0.014336 -0.119768 -3.826409 0
M  V30 25 F -0.420438 -2.172293 -4.423536 0
M  V30 26 F 1.571853 -1.608433 -3.763555 0
M  V30 27 C 0.651722 -2.656844 -1.328658 0
M  V30 28 C -3.034541 -1.149464 0.325828 0
M  V30 29 N -4.173038 -1.590578 -0.490070 0
M  V30 30 C -4.338270 -3.047020 -0.458825 0
M  V30 31 C -5.457861 -0.874364 -0.223226 0 CFG=1
M  V30 32 C -6.105665 -1.237968 1.125309 0
M  V30 33 C -5.635380 -0.730009 2.347650 0
M  V30 34 C -6.250038 -1.078868 3.552626 0
M  V30 35 C -7.344902 -1.938662 3.555606 0
M  V30 36 C -7.827036 -2.451080 2.354425 0
M  V30 37 C -7.213161 -2.104328 1.149283 0
M  V30 38 C -5.450828 0.716598 -0.467262 0 CFG=2
M  V30 39 C -6.888789 1.261237 -0.537504 0
M  V30 40 C -7.785235 0.895335 -1.553780 0
M  V30 41 C -9.086493 1.403928 -1.581811 0
M  V30 42 C -9.518366 2.276221 -0.586811 0
M  V30 43 C -8.652944 2.632930 0.442547 0
M  V30 44 C -7.352795 2.125040 0.470374 0
M  V30 45 N -4.539588 1.214052 -1.547840 0
M  V30 46 C -4.784210 0.654588 -2.872346 0
M  V30 47 C -4.424944 2.679352 -1.624533 0
M  V30 48 C -3.826629 3.310345 -0.381722 0
M  V30 49 C -2.544441 2.941653 0.055582 0
M  V30 50 C -2.006219 3.474879 1.228362 0
M  V30 51 C -2.777018 4.355071 1.993569 0
M  V30 52 C -4.051010 4.760616 1.564195 0
M  V30 53 C -4.848236 5.736851 2.393453 0
M  V30 54 F -6.133406 5.890720 1.969702 0
M  V30 55 F -4.931036 5.360506 3.700045 0
M  V30 56 F -4.300635 6.983054 2.396311 0
M  V30 57 C -4.556350 4.248161 0.361804 0
M  V30 58 N -0.737283 3.126955 1.728859 0
M  V30 59 C 0.368882 2.593906 1.106673 0
M  V30 60 S 1.528359 1.947801 2.124413 0
M  V30 61 N 0.424158 2.776687 -0.253653 0
M  V30 62 C 1.327958 2.327822 -1.240464 0
M  V30 63 C 2.193965 1.245369 -1.095781 0
M  V30 64 C 3.086552 0.889517 -2.121291 0
M  V30 65 C 3.073418 1.611843 -3.322327 0
M  V30 66 C 2.174300 2.666384 -3.512673 0
M  V30 67 C 2.162054 3.438851 -4.806211 0
M  V30 68 F 3.044857 4.475509 -4.800550 0
M  V30 69 F 2.481701 2.678721 -5.890361 0
M  V30 70 F 0.946222 3.989194 -5.085921 0
M  V30 71 C 1.310726 3.016443 -2.461902 0
M  V30 72 C 4.042624 -0.271854 -1.947228 0
M  V30 73 N 5.441802 0.142005 -1.981454 0
M  V30 74 C 6.325535 -0.831211 -2.601278 0
M  V30 75 C 5.956826 0.857600 -0.789696 0 CFG=2
M  V30 76 C 6.804554 2.016816 -1.382540 0
M  V30 77 C 7.460628 2.892433 -0.326647 0
M  V30 78 C 8.348911 2.054442 0.573563 0
M  V30 79 C 7.525670 0.990192 1.282307 0
M  V30 80 C 6.767359 0.045550 0.307929 0 CFG=1
M  V30 81 H 3.978983 -0.381578 1.064251 0
M  V30 82 H 4.512943 -0.983006 2.640021 0
M  V30 83 H 4.935093 0.628161 2.148871 0
M  V30 84 H 6.834143 -2.586907 0.173727 0
M  V30 85 H 5.194848 -2.205648 -0.286841 0
M  V30 86 H 3.326823 -2.949407 1.018892 0
M  V30 87 H 4.057628 -6.178500 3.779323 0
M  V30 88 H 7.321438 -3.816130 2.270323 0
M  V30 89 H 1.930691 -5.659458 3.219699 0
M  V30 90 H 1.974814 -4.183275 0.147141 0
M  V30 91 H -1.176420 -2.692366 1.536637 0
M  V30 92 H -1.960392 -0.612397 -2.120393 0
M  V30 93 H 1.557066 -3.066123 -1.773914 0
M  V30 94 H -3.138066 -1.497093 1.360244 0
M  V30 95 H -2.971399 -0.058349 0.372685 0
M  V30 96 H -5.194842 -3.356554 -1.068932 0
M  V30 97 H -3.470593 -3.553618 -0.894662 0
M  V30 98 H -4.478162 -3.432665 0.557049 0
M  V30 99 H -6.133716 -1.259660 -0.999734 0
M  V30 100 H -4.782887 -0.056378 2.380667 0
M  V30 101 H -5.871888 -0.678704 4.489883 0
M  V30 102 H -7.822607 -2.209424 4.493110 0
M  V30 103 H -8.682695 -3.121331 2.354192 0
M  V30 104 H -7.609508 -2.514600 0.223320 0
M  V30 105 H -5.014496 1.124807 0.452096 0
M  V30 106 H -7.488975 0.199038 -2.333608 0
M  V30 107 H -9.765279 1.111000 -2.379053 0
M  V30 108 H -10.531960 2.667323 -0.607204 0
M  V30 109 H -8.990734 3.299146 1.232428 0
M  V30 110 H -6.706195 2.398853 1.300994 0
M  V30 111 H -5.659949 1.093978 -3.360356 0
M  V30 112 H -3.921177 0.850230 -3.520050 0
M  V30 113 H -4.902915 -0.432314 -2.858196 0
M  V30 114 H -3.753135 2.952448 -2.450186 0
M  V30 115 H -5.390380 3.141034 -1.866413 0
M  V30 116 H -2.013686 2.175394 -0.506779 0
M  V30 117 H -2.381521 4.759720 2.924443 0
M  V30 118 H -5.545971 4.552856 0.019457 0
M  V30 119 H -0.598701 3.251185 2.727263 0
M  V30 120 H -0.188526 3.521493 -0.562425 0
M  V30 121 H 2.182389 0.640472 -0.197244 0
M  V30 122 H 3.766369 1.337466 -4.117999 0
M  V30 123 H 0.626655 3.851621 -2.607321 0
M  V30 124 H 3.798637 -0.832298 -1.043418 0
M  V30 125 H 3.829747 -0.963365 -2.773930 0
M  V30 126 H 6.003642 -1.028822 -3.630302 0
M  V30 127 H 7.354273 -0.466118 -2.676248 0
M  V30 128 H 6.347113 -1.787648 -2.076585 0
M  V30 129 H 5.122006 1.352332 -0.276522 0
M  V30 130 H 6.169051 2.651664 -2.014548 0
M  V30 131 H 7.596581 1.625616 -2.033278 0
M  V30 132 H 8.059886 3.668943 -0.815562 0
M  V30 133 H 6.691922 3.404014 0.264680 0
M  V30 134 H 9.145646 1.582268 -0.014314 0
M  V30 135 H 8.834738 2.698393 1.315621 0
M  V30 136 H 8.194973 0.397830 1.920035 0
M  V30 137 H 6.830513 1.504593 1.955405 0
M  V30 138 H 7.565329 -0.501459 -0.213193 0
M  V30 END ATOM
M  V30 BEGIN BOND
M  V30 1 1 1 2
M  V30 2 1 2 3
M  V30 3 1 3 4
M  V30 4 1 4 5
M  V30 5 2 5 6
M  V30 6 1 6 7
M  V30 7 2 7 8
M  V30 8 1 8 9
M  V30 9 1 9 10
M  V30 10 1 9 11
M  V30 11 1 9 12
M  V30 12 1 8 13
M  V30 13 1 6 14
M  V30 14 1 14 15
M  V30 15 2 15 16
M  V30 16 1 15 17
M  V30 17 1 17 18
M  V30 18 1 18 19
M  V30 19 2 19 20
M  V30 20 1 20 21
M  V30 21 2 21 22
M  V30 22 1 22 23
M  V30 23 1 23 24
M  V30 24 1 23 25
M  V30 25 1 23 26
M  V30 26 1 22 27
M  V30 27 1 20 28
M  V30 28 1 28 29
M  V30 29 1 29 30
M  V30 30 1 29 31
M  V30 31 1 31 32
M  V30 32 2 32 33
M  V30 33 1 33 34
M  V30 34 2 34 35
M  V30 35 1 35 36
M  V30 36 2 36 37
M  V30 37 1 31 38
M  V30 38 1 38 39
M  V30 39 2 39 40
M  V30 40 1 40 41
M  V30 41 2 41 42
M  V30 42 1 42 43
M  V30 43 2 43 44
M  V30 44 1 38 45
M  V30 45 1 45 46
M  V30 46 1 45 47
M  V30 47 1 47 48
M  V30 48 1 48 49
M  V30 49 2 49 50
M  V30 50 1 50 51
M  V30 51 2 51 52
M  V30 52 1 52 53
M  V30 53 1 53 54
M  V30 54 1 53 55
M  V30 55 1 53 56
M  V30 56 1 52 57
M  V30 57 1 50 58
M  V30 58 1 58 59
M  V30 59 2 59 60
M  V30 60 1 59 61
M  V30 61 1 61 62
M  V30 62 1 62 63
M  V30 63 2 63 64
M  V30 64 1 64 65
M  V30 65 2 65 66
M  V30 66 1 66 67
M  V30 67 1 67 68
M  V30 68 1 67 69
M  V30 69 1 67 70
M  V30 70 1 66 71
M  V30 71 1 64 72
M  V30 72 1 72 73
M  V30 73 1 73 74
M  V30 74 1 73 75
M  V30 75 1 75 76
M  V30 76 1 76 77
M  V30 77 1 77 78
M  V30 78 1 78 79
M  V30 79 1 79 80
M  V30 80 1 80 2
M  V30 81 2 13 4
M  V30 82 2 27 18
M  V30 83 1 37 32
M  V30 84 1 44 39
M  V30 85 2 57 48
M  V30 86 2 71 62
M  V30 87 1 80 75
M  V30 88 1 1 81
M  V30 89 1 1 82
M  V30 90 1 1 83
M  V30 91 1 3 84
M  V30 92 1 3 85
M  V30 93 1 5 86
M  V30 94 1 7 87
M  V30 95 1 13 88
M  V30 96 1 14 89
M  V30 97 1 17 90
M  V30 98 1 19 91
M  V30 99 1 21 92
M  V30 100 1 27 93
M  V30 101 1 28 94
M  V30 102 1 28 95
M  V30 103 1 30 96
M  V30 104 1 30 97
M  V30 105 1 30 98
M  V30 106 1 31 99 CFG=3
M  V30 107 1 33 100
M  V30 108 1 34 101
M  V30 109 1 35 102
M  V30 110 1 36 103
M  V30 111 1 37 104
M  V30 112 1 38 105 CFG=1
M  V30 113 1 40 106
M  V30 114 1 41 107
M  V30 115 1 42 108
M  V30 116 1 43 109
M  V30 117 1 44 110
M  V30 118 1 46 111
M  V30 119 1 46 112
M  V30 120 1 46 113
M  V30 121 1 47 114
M  V30 122 1 47 115
M  V30 123 1 49 116
M  V30 124 1 51 117
M  V30 125 1 57 118
M  V30 126 1 58 119
M  V30 127 1 61 120
M  V30 128 1 63 121
M  V30 129 1 65 122
M  V30 130 1 71 123
M  V30 131 1 72 124
M  V30 132 1 72 125
M  V30 133 1 74 126
M  V30 134 1 74 127
M  V30 135 1 74 128
M  V30 136 1 75 129 CFG=1
M  V30 137 1 76 130
M  V30 138 1 76 131
M  V30 139 1 77 132
M  V30 140 1 77 133
M  V30 141 1 78 134
M  V30 142 1 78 135
M  V30 143 1 79 136
M  V30 144 1 79 137
M  V30 145 1 80 138 CFG=3
M  V30 END BOND
M  V30 END CTAB
M  END
>  <catalyst_id>  (1) 
RFCORVRWLFCJNY_DSIMHHNMSA_NONE

>  <source_smiles>  (1) 
CN1Cc2cc(cc(C(F)(F)F)c2)NC(=S)Nc2cc(cc(C(F)(F)F)c2)CN(C)[C@@H](c2ccccc2)[C@H](c2ccccc2)N(C)Cc2cc(cc(C(F)(F)F)c2)NC(=S)Nc2cc(cc(C(F)(F)F)c2)CN(C)[C@@H]2CCCC[C@H]21

>  <axial_configuration>  (1) 
none

>  <inchikey>  (1) 
RFCORVRWLFCJNY-DSIMHHNMSA-N

>  <build_source>  (1) 
smiles

>  <rdkit_version>  (1) 
2025.09.6

>  <random_seed>  (1) 
42

>  <generated_at>  (1) 
2026-05-19T12:37:59

$$$$
