catalyst341
     RDKit          3D

  0  0  0  0  0  0  0  0  0  0999 V3000
M  V30 BEGIN CTAB
M  V30 COUNTS 126 136 0 0 0
M  V30 BEGIN ATOM
M  V30 1 C -7.095173 -5.579944 -1.594028 0
M  V30 2 C -7.396034 -4.089016 -1.617183 0
M  V30 3 C -6.142870 -3.209752 -1.775139 0 CFG=1
M  V30 4 C -6.538681 -1.714942 -1.869705 0
M  V30 5 N -5.664987 -0.861422 -1.031922 0
M  V30 6 C -5.894876 -1.225597 0.383090 0
M  V30 7 C -5.611498 -2.712828 0.641316 0
M  V30 8 C -5.091546 -3.365201 -0.649697 0 CFG=2
M  V30 9 C -3.839648 -2.569741 -1.069470 0
M  V30 10 C -4.240899 -1.109131 -1.413721 0 CFG=2
M  V30 11 C -3.207587 -0.090500 -0.817696 0 CFG=1
M  V30 12 O -1.930414 -0.356817 -1.438476 0
M  V30 13 C -0.886371 -0.083103 -0.580541 0
M  V30 14 N -0.858791 -0.800532 0.560680 0
M  V30 15 C 0.168289 -0.562094 1.391405 0
M  V30 16 C 0.222106 -1.318904 2.657667 0
M  V30 17 C 1.185042 -1.033683 3.645035 0
M  V30 18 C 1.242898 -1.754360 4.842054 0
M  V30 19 C 0.333086 -2.778957 5.082143 0
M  V30 20 C -0.632509 -3.082852 4.127592 0
M  V30 21 C -0.685784 -2.360543 2.931161 0
M  V30 22 N 1.151739 0.316915 1.141306 0
M  V30 23 C 1.086546 0.969677 -0.036608 0
M  V30 24 O 2.091286 1.883295 -0.276588 0
M  V30 25 C 3.391058 1.251361 -0.285242 0 CFG=1
M  V30 26 C 3.651911 0.741282 -1.702907 0
M  V30 27 C 3.826818 1.675408 -2.734181 0
M  V30 28 C 4.021556 1.224127 -4.022877 0
M  V30 29 N 4.046157 -0.077015 -4.365214 0
M  V30 30 C 3.864821 -0.984106 -3.394999 0
M  V30 31 C 3.873316 -2.320423 -3.766949 0
M  V30 32 C 3.675627 -3.354094 -2.846932 0
M  V30 33 C 3.461106 -3.049142 -1.512179 0
M  V30 34 O 3.251288 -3.945652 -0.502319 0
M  V30 35 C 3.224425 -5.321738 -0.859191 0
M  V30 36 C 3.452294 -1.708104 -1.117136 0
M  V30 37 C 3.655392 -0.645453 -2.036392 0
M  V30 38 C 4.429062 2.312208 0.226609 0 CFG=1
M  V30 39 C 4.124426 2.710982 1.697689 0
M  V30 40 C 5.431224 2.738171 2.508057 0 CFG=2
M  V30 41 C 6.403173 3.678167 1.772799 0
M  V30 42 C 6.708584 3.104081 0.380666 0
M  V30 43 N 5.867268 1.923653 0.082620 0
M  V30 44 C 6.202811 0.848766 1.043925 0
M  V30 45 C 6.069274 1.326249 2.509591 0 CFG=2
M  V30 46 C 5.294149 0.327665 3.385432 0
M  V30 47 C 6.046313 -0.980724 3.589597 0
M  V30 48 C 0.073309 0.833611 -0.968207 0
M  V30 49 C 0.023035 1.578935 -2.229265 0
M  V30 50 C -0.233979 2.959260 -2.240594 0
M  V30 51 C -0.286404 3.669093 -3.442453 0
M  V30 52 C -0.076134 3.009573 -4.651123 0
M  V30 53 C 0.183772 1.641392 -4.659373 0
M  V30 54 C 0.229262 0.931060 -3.457534 0
M  V30 55 C -3.552213 1.375911 -1.079679 0
M  V30 56 C -3.777782 1.786605 -2.401861 0
M  V30 57 C -4.055157 3.113324 -2.654615 0
M  V30 58 N -4.118015 4.059326 -1.700010 0
M  V30 59 C -3.890061 3.687954 -0.432291 0
M  V30 60 C -3.943490 4.678563 0.536932 0
M  V30 61 C -3.704404 4.415335 1.888466 0
M  V30 62 C -3.398880 3.124563 2.290039 0
M  V30 63 O -3.136327 2.716846 3.567817 0
M  V30 64 C -3.153309 3.716522 4.578894 0
M  V30 65 C -3.344504 2.111390 1.328150 0
M  V30 66 C -3.591941 2.358941 -0.047693 0
M  V30 67 H -6.547615 -5.864484 -0.691024 0
M  V30 68 H -6.506495 -5.877617 -2.467283 0
M  V30 69 H -8.029648 -6.150897 -1.604861 0
M  V30 70 H -8.071468 -3.889894 -2.459341 0
M  V30 71 H -7.948227 -3.821441 -0.709308 0
M  V30 72 H -5.662533 -3.493560 -2.722614 0
M  V30 73 H -6.476306 -1.385689 -2.914659 0
M  V30 74 H -7.585059 -1.554308 -1.579766 0
M  V30 75 H -6.931933 -0.994472 0.658002 0
M  V30 76 H -5.282789 -0.603165 1.045282 0
M  V30 77 H -4.863065 -2.811507 1.437377 0
M  V30 78 H -6.517586 -3.217510 0.992800 0
M  V30 79 H -4.821647 -4.411054 -0.476686 0
M  V30 80 H -3.102161 -2.606271 -0.258592 0
M  V30 81 H -3.375328 -3.039673 -1.945567 0
M  V30 82 H -4.172128 -1.020915 -2.507673 0
M  V30 83 H -3.172638 -0.298359 0.253687 0
M  V30 84 H 1.904828 -0.232686 3.485976 0
M  V30 85 H 1.998550 -1.511766 5.584419 0
M  V30 86 H 0.376423 -3.340445 6.011731 0
M  V30 87 H -1.346278 -3.881896 4.309911 0
M  V30 88 H -1.448785 -2.622556 2.200159 0
M  V30 89 H 3.431049 0.431132 0.435351 0
M  V30 90 H 3.794461 2.743215 -2.546987 0
M  V30 91 H 4.157844 1.922921 -4.842829 0
M  V30 92 H 4.037786 -2.567358 -4.813857 0
M  V30 93 H 3.696284 -4.374442 -3.212535 0
M  V30 94 H 3.037015 -5.899745 0.050756 0
M  V30 95 H 4.189349 -5.642809 -1.265005 0
M  V30 96 H 2.410316 -5.532466 -1.560521 0
M  V30 97 H 3.275512 -1.514365 -0.063204 0
M  V30 98 H 4.271873 3.218450 -0.376621 0
M  V30 99 H 3.408618 2.028520 2.167202 0
M  V30 100 H 3.662285 3.706115 1.713578 0
M  V30 101 H 5.250197 3.096185 3.527385 0
M  V30 102 H 5.961261 4.677073 1.678637 0
M  V30 103 H 7.332525 3.787346 2.343337 0
M  V30 104 H 7.769048 2.830845 0.309580 0
M  V30 105 H 6.554212 3.874908 -0.384625 0
M  V30 106 H 7.234283 0.518256 0.865055 0
M  V30 107 H 5.587372 -0.034652 0.843786 0
M  V30 108 H 7.078934 1.423110 2.933628 0
M  V30 109 H 4.317785 0.102808 2.943700 0
M  V30 110 H 5.105176 0.774902 4.368920 0
M  V30 111 H 6.209005 -1.504130 2.642727 0
M  V30 112 H 5.473272 -1.644747 4.244494 0
M  V30 113 H 7.019873 -0.802988 4.056726 0
M  V30 114 H -0.411018 3.491382 -1.307594 0
M  V30 115 H -0.499370 4.734825 -3.430513 0
M  V30 116 H -0.114595 3.561963 -5.586060 0
M  V30 117 H 0.358153 1.122916 -5.599128 0
M  V30 118 H 0.443198 -0.135999 -3.485889 0
M  V30 119 H -3.718121 1.090018 -3.231140 0
M  V30 120 H -4.230291 3.463037 -3.667571 0
M  V30 121 H -4.178451 5.695305 0.228537 0
M  V30 122 H -3.765920 5.241048 2.588706 0
M  V30 123 H -2.395444 4.483940 4.389269 0
M  V30 124 H -2.907516 3.233798 5.529734 0
M  V30 125 H -4.149386 4.160064 4.677526 0
M  V30 126 H -3.096839 1.115933 1.684731 0
M  V30 END ATOM
M  V30 BEGIN BOND
M  V30 1 1 1 2
M  V30 2 1 2 3
M  V30 3 1 3 4
M  V30 4 1 4 5
M  V30 5 1 5 6
M  V30 6 1 6 7
M  V30 7 1 7 8
M  V30 8 1 8 9
M  V30 9 1 9 10
M  V30 10 1 10 11
M  V30 11 1 11 12
M  V30 12 1 12 13
M  V30 13 2 13 14
M  V30 14 1 14 15
M  V30 15 1 15 16
M  V30 16 2 16 17
M  V30 17 1 17 18
M  V30 18 2 18 19
M  V30 19 1 19 20
M  V30 20 2 20 21
M  V30 21 2 15 22
M  V30 22 1 22 23
M  V30 23 1 23 24
M  V30 24 1 24 25
M  V30 25 1 25 26
M  V30 26 2 26 27
M  V30 27 1 27 28
M  V30 28 2 28 29
M  V30 29 1 29 30
M  V30 30 2 30 31
M  V30 31 1 31 32
M  V30 32 2 32 33
M  V30 33 1 33 34
M  V30 34 1 34 35
M  V30 35 1 33 36
M  V30 36 2 36 37
M  V30 37 1 25 38
M  V30 38 1 38 39
M  V30 39 1 39 40
M  V30 40 1 40 41
M  V30 41 1 41 42
M  V30 42 1 42 43
M  V30 43 1 43 44
M  V30 44 1 44 45
M  V30 45 1 45 46
M  V30 46 1 46 47
M  V30 47 2 23 48
M  V30 48 1 48 49
M  V30 49 2 49 50
M  V30 50 1 50 51
M  V30 51 2 51 52
M  V30 52 1 52 53
M  V30 53 2 53 54
M  V30 54 1 11 55
M  V30 55 2 55 56
M  V30 56 1 56 57
M  V30 57 2 57 58
M  V30 58 1 58 59
M  V30 59 2 59 60
M  V30 60 1 60 61
M  V30 61 2 61 62
M  V30 62 1 62 63
M  V30 63 1 63 64
M  V30 64 1 62 65
M  V30 65 2 65 66
M  V30 66 1 8 3
M  V30 67 1 48 13
M  V30 68 1 54 49
M  V30 69 1 66 55
M  V30 70 1 10 5
M  V30 71 1 21 16
M  V30 72 1 37 26
M  V30 73 1 43 38
M  V30 74 1 66 59
M  V30 75 1 37 30
M  V30 76 1 45 40
M  V30 77 1 1 67
M  V30 78 1 1 68
M  V30 79 1 1 69
M  V30 80 1 2 70
M  V30 81 1 2 71
M  V30 82 1 3 72 CFG=3
M  V30 83 1 4 73
M  V30 84 1 4 74
M  V30 85 1 6 75
M  V30 86 1 6 76
M  V30 87 1 7 77
M  V30 88 1 7 78
M  V30 89 1 8 79 CFG=1
M  V30 90 1 9 80
M  V30 91 1 9 81
M  V30 92 1 10 82 CFG=3
M  V30 93 1 11 83 CFG=1
M  V30 94 1 17 84
M  V30 95 1 18 85
M  V30 96 1 19 86
M  V30 97 1 20 87
M  V30 98 1 21 88
M  V30 99 1 25 89 CFG=1
M  V30 100 1 27 90
M  V30 101 1 28 91
M  V30 102 1 31 92
M  V30 103 1 32 93
M  V30 104 1 35 94
M  V30 105 1 35 95
M  V30 106 1 35 96
M  V30 107 1 36 97
M  V30 108 1 38 98 CFG=3
M  V30 109 1 39 99
M  V30 110 1 39 100
M  V30 111 1 40 101 CFG=1
M  V30 112 1 41 102
M  V30 113 1 41 103
M  V30 114 1 42 104
M  V30 115 1 42 105
M  V30 116 1 44 106
M  V30 117 1 44 107
M  V30 118 1 45 108 CFG=1
M  V30 119 1 46 109
M  V30 120 1 46 110
M  V30 121 1 47 111
M  V30 122 1 47 112
M  V30 123 1 47 113
M  V30 124 1 50 114
M  V30 125 1 51 115
M  V30 126 1 52 116
M  V30 127 1 53 117
M  V30 128 1 54 118
M  V30 129 1 56 119
M  V30 130 1 57 120
M  V30 131 1 60 121
M  V30 132 1 61 122
M  V30 133 1 64 123
M  V30 134 1 64 124
M  V30 135 1 64 125
M  V30 136 1 65 126
M  V30 END BOND
M  V30 END CTAB
M  END
>  <catalyst_id>  (1) 
SWKRDCRSJPRVNF_FRNGVGHOSA_NONE

>  <source_smiles>  (1) 
CC[C@H]1CN2CC[C@@H]1C[C@@H]2[C@@H](Oc1nc(-c2ccccc2)nc(O[C@@H](c2ccnc3ccc(OC)cc23)[C@H]2C[C@@H]3CCN2C[C@@H]3CC)c1-c1ccccc1)c1ccnc2ccc(OC)cc12

>  <axial_configuration>  (1) 
none

>  <inchikey>  (1) 
SWKRDCRSJPRVNF-FRNGVGHOSA-N

>  <build_source>  (1) 
smiles

>  <final_biaryl_angle_deg>  (1) 
-173.39

>  <rdkit_version>  (1) 
2025.09.6

>  <random_seed>  (1) 
42

>  <generated_at>  (1) 
2026-05-19T12:34:00

$$$$
