catalyst57
     RDKit          3D

  0  0  0  0  0  0  0  0  0  0999 V3000
M  V30 BEGIN CTAB
M  V30 COUNTS 28 28 0 0 0
M  V30 BEGIN ATOM
M  V30 1 C -2.063624 1.636211 0.970019 0
M  V30 2 N -1.544334 0.280857 0.780886 0
M  V30 3 C -2.453054 -0.490473 -0.067359 0
M  V30 4 C -0.132708 0.287611 0.314098 0 CFG=2
M  V30 5 C 0.094044 0.744016 -1.140861 0
M  V30 6 C 1.585048 0.788732 -1.481204 0
M  V30 7 C 2.273814 -0.547092 -1.217331 0
M  V30 8 C 2.049067 -1.031492 0.213785 0
M  V30 9 C 0.554189 -1.099393 0.545415 0 CFG=1
M  V30 10 N 0.361213 -1.567057 1.928607 0
M  V30 11 H -1.422313 2.207791 1.649963 0
M  V30 12 H -2.151546 2.189134 0.028908 0
M  V30 13 H -3.054657 1.602624 1.436877 0
M  V30 14 H -3.442682 -0.551010 0.400391 0
M  V30 15 H -2.114025 -1.523361 -0.189357 0
M  V30 16 H -2.581456 -0.046239 -1.060211 0
M  V30 17 H 0.404774 0.996469 0.962530 0
M  V30 18 H -0.330693 1.740318 -1.305009 0
M  V30 19 H -0.403218 0.061135 -1.840122 0
M  V30 20 H 1.712019 1.064702 -2.534226 0
M  V30 21 H 2.070313 1.572386 -0.886315 0
M  V30 22 H 3.348649 -0.450452 -1.407962 0
M  V30 23 H 1.891922 -1.298113 -1.919897 0
M  V30 24 H 2.509040 -2.019864 0.335543 0
M  V30 25 H 2.562108 -0.353933 0.908753 0
M  V30 26 H 0.097026 -1.846086 -0.115410 0
M  V30 27 H 0.818361 -0.911911 2.562197 0
M  V30 28 H -0.637276 -1.435511 2.127292 0
M  V30 END ATOM
M  V30 BEGIN BOND
M  V30 1 1 1 2
M  V30 2 1 2 3
M  V30 3 1 2 4
M  V30 4 1 4 5
M  V30 5 1 5 6
M  V30 6 1 6 7
M  V30 7 1 7 8
M  V30 8 1 8 9
M  V30 9 1 9 10
M  V30 10 1 9 4
M  V30 11 1 1 11
M  V30 12 1 1 12
M  V30 13 1 1 13
M  V30 14 1 3 14
M  V30 15 1 3 15
M  V30 16 1 3 16
M  V30 17 1 4 17 CFG=1
M  V30 18 1 5 18
M  V30 19 1 5 19
M  V30 20 1 6 20
M  V30 21 1 6 21
M  V30 22 1 7 22
M  V30 23 1 7 23
M  V30 24 1 8 24
M  V30 25 1 8 25
M  V30 26 1 9 26 CFG=3
M  V30 27 1 10 27
M  V30 28 1 10 28
M  V30 END BOND
M  V30 END CTAB
M  END
>  <catalyst_id>  (1) 
FRDZGSBXKJXGNR_HTQZYQBOSA_NONE

>  <source_smiles>  (1) 
CN(C)[C@@H]1CCCC[C@H]1N

>  <axial_configuration>  (1) 
none

>  <inchikey>  (1) 
FRDZGSBXKJXGNR-HTQZYQBOSA-N

>  <build_source>  (1) 
smiles

>  <rdkit_version>  (1) 
2025.09.6

>  <random_seed>  (1) 
42

>  <generated_at>  (1) 
2026-05-19T12:37:16

$$$$
