catalyst24
     RDKit          3D

  0  0  0  0  0  0  0  0  0  0999 V3000
M  V30 BEGIN CTAB
M  V30 COUNTS 24 25 0 0 0
M  V30 BEGIN ATOM
M  V30 1 O 3.537978 -1.415426 -0.830623 0
M  V30 2 C 3.125190 -0.456090 -0.198325 0
M  V30 3 O 3.996277 0.477962 0.254458 0
M  V30 4 C 1.686465 -0.191310 0.243384 0 CFG=2
M  V30 5 C 0.707884 -0.969125 -0.645986 0
M  V30 6 C -0.727953 -0.576878 -0.387222 0
M  V30 7 C -1.771922 -1.394117 -0.840401 0
M  V30 8 C -3.098911 -1.021552 -0.629786 0
M  V30 9 C -3.392472 0.170825 0.027955 0
M  V30 10 C -2.359250 0.996316 0.472935 0
M  V30 11 C -1.019919 0.638986 0.259762 0
M  V30 12 C 0.085671 1.528021 0.782962 0
M  V30 13 N 1.388414 1.259281 0.171465 0
M  V30 14 H 4.857619 0.183402 -0.108579 0
M  V30 15 H 1.614122 -0.535442 1.284154 0
M  V30 16 H 0.831695 -2.043974 -0.462446 0
M  V30 17 H 0.927028 -0.790077 -1.706998 0
M  V30 18 H -1.554364 -2.323275 -1.362043 0
M  V30 19 H -3.904264 -1.660529 -0.982132 0
M  V30 20 H -4.427269 0.459630 0.191956 0
M  V30 21 H -2.604156 1.924087 0.984874 0
M  V30 22 H -0.168563 2.575271 0.584019 0
M  V30 23 H 0.151968 1.401760 1.870709 0
M  V30 24 H 2.118728 1.762254 0.678000 0
M  V30 END ATOM
M  V30 BEGIN BOND
M  V30 1 2 1 2
M  V30 2 1 2 3
M  V30 3 1 2 4
M  V30 4 1 4 5
M  V30 5 1 5 6
M  V30 6 2 6 7
M  V30 7 1 7 8
M  V30 8 2 8 9
M  V30 9 1 9 10
M  V30 10 2 10 11
M  V30 11 1 11 12
M  V30 12 1 12 13
M  V30 13 1 13 4
M  V30 14 1 11 6
M  V30 15 1 3 14
M  V30 16 1 4 15 CFG=1
M  V30 17 1 5 16
M  V30 18 1 5 17
M  V30 19 1 7 18
M  V30 20 1 8 19
M  V30 21 1 9 20
M  V30 22 1 10 21
M  V30 23 1 12 22
M  V30 24 1 12 23
M  V30 25 1 13 24
M  V30 END BOND
M  V30 END CTAB
M  END
>  <catalyst_id>  (1) 
BWKMGYQJPOAASG_VIFPVBQESA_NONE

>  <source_smiles>  (1) 
O=C(O)[C@@H]1Cc2ccccc2CN1

>  <axial_configuration>  (1) 
none

>  <inchikey>  (1) 
BWKMGYQJPOAASG-VIFPVBQESA-N

>  <build_source>  (1) 
smiles

>  <rdkit_version>  (1) 
2025.09.6

>  <random_seed>  (1) 
42

>  <generated_at>  (1) 
2026-05-19T12:29:59

$$$$
