catalyst308
     RDKit          3D

  0  0  0  0  0  0  0  0  0  0999 V3000
M  V30 BEGIN CTAB
M  V30 COUNTS 68 76 0 0 0
M  V30 BEGIN ATOM
M  V30 1 O -0.911017 2.701371 0.332145 0
M  V30 2 P -0.804065 1.462277 -0.500498 0
M  V30 3 O -1.314327 1.635700 -2.014851 0
M  V30 4 O 0.667866 0.830704 -0.689581 0
M  V30 5 C 1.166878 0.020742 0.306685 0
M  V30 6 C 2.237991 0.522576 1.063197 0
M  V30 7 C 2.830989 1.837041 0.805525 0
M  V30 8 C 2.299666 2.998433 1.351492 0
M  V30 9 C 2.939370 4.206493 1.098101 0
M  V30 10 C 4.102823 4.225449 0.321832 0
M  V30 11 C 4.782742 5.422777 0.037134 0
M  V30 12 C 5.940842 5.407100 -0.737388 0
M  V30 13 C 6.421799 4.198839 -1.228880 0
M  V30 14 C 5.741700 3.010823 -0.943508 0
M  V30 15 C 4.585314 2.996803 -0.175162 0
M  V30 16 N 3.970230 1.826933 0.070411 0
M  V30 17 C 2.784168 -0.300310 2.049808 0
M  V30 18 C 2.258531 -1.567207 2.317403 0
M  V30 19 C 2.811506 -2.330559 3.359652 0
M  V30 20 C 2.287316 -3.574813 3.697152 0
M  V30 21 C 1.192971 -4.064217 3.003069 0
M  V30 22 C 0.641312 -3.317119 1.958345 0
M  V30 23 C 1.169513 -2.064510 1.552342 0
M  V30 24 C 0.628695 -1.282272 0.466767 0
M  V30 25 C -0.404490 -1.754981 -0.434799 0
M  V30 26 C -1.583098 -0.989383 -0.615966 0
M  V30 27 C -2.701933 -1.411594 -1.358220 0
M  V30 28 C -3.940552 -0.612405 -1.451670 0
M  V30 29 C -5.182941 -1.164122 -1.153845 0
M  V30 30 C -6.318314 -0.369543 -1.265241 0
M  V30 31 C -6.197008 0.961749 -1.671519 0
M  V30 32 C -7.321885 1.795895 -1.794917 0
M  V30 33 C -7.174509 3.120201 -2.199125 0
M  V30 34 C -5.906427 3.613086 -2.480310 0
M  V30 35 C -4.790446 2.779176 -2.356120 0
M  V30 36 C -4.905826 1.452848 -1.955043 0
M  V30 37 N -3.797246 0.685662 -1.848138 0
M  V30 38 C -2.607147 -2.647876 -2.004785 0
M  V30 39 C -1.446374 -3.427700 -1.939411 0
M  V30 40 C -1.391718 -4.637739 -2.652704 0
M  V30 41 C -0.240078 -5.419685 -2.657583 0
M  V30 42 C 0.877937 -4.991751 -1.960402 0
M  V30 43 C 0.832868 -3.793699 -1.242659 0
M  V30 44 C -0.332227 -2.988281 -1.175764 0
M  V30 45 O -1.687745 0.219049 0.035383 0
M  V30 46 H -2.280870 1.449646 -2.057195 0
M  V30 47 H 1.392629 2.972977 1.947577 0
M  V30 48 H 2.522155 5.124315 1.503436 0
M  V30 49 H 4.410958 6.371448 0.417066 0
M  V30 50 H 6.463727 6.334101 -0.957185 0
M  V30 51 H 7.322801 4.173781 -1.836115 0
M  V30 52 H 6.121305 2.069342 -1.333300 0
M  V30 53 H 3.634861 0.069282 2.622394 0
M  V30 54 H 3.656794 -1.951303 3.931301 0
M  V30 55 H 2.723491 -4.149178 4.509747 0
M  V30 56 H 0.759756 -5.024443 3.270505 0
M  V30 57 H -0.233365 -3.734122 1.462938 0
M  V30 58 H -5.274259 -2.195050 -0.826064 0
M  V30 59 H -7.291242 -0.793630 -1.029827 0
M  V30 60 H -8.317878 1.417973 -1.575120 0
M  V30 61 H -8.044941 3.764630 -2.292574 0
M  V30 62 H -5.777669 4.645985 -2.794954 0
M  V30 63 H -3.807376 3.187773 -2.579924 0
M  V30 64 H -3.447440 -2.995865 -2.605362 0
M  V30 65 H -2.249253 -4.978453 -3.230084 0
M  V30 66 H -0.211473 -6.348450 -3.220907 0
M  V30 67 H 1.792779 -5.578675 -1.976964 0
M  V30 68 H 1.747786 -3.483974 -0.739533 0
M  V30 END ATOM
M  V30 BEGIN BOND
M  V30 1 2 1 2
M  V30 2 1 2 3
M  V30 3 1 2 4
M  V30 4 1 4 5
M  V30 5 2 5 6
M  V30 6 1 6 7
M  V30 7 2 7 8
M  V30 8 1 8 9
M  V30 9 2 9 10
M  V30 10 1 10 11
M  V30 11 2 11 12
M  V30 12 1 12 13
M  V30 13 2 13 14
M  V30 14 1 14 15
M  V30 15 2 15 16
M  V30 16 1 6 17
M  V30 17 2 17 18
M  V30 18 1 18 19
M  V30 19 2 19 20
M  V30 20 1 20 21
M  V30 21 2 21 22
M  V30 22 1 22 23
M  V30 23 2 23 24
M  V30 24 1 24 25
M  V30 25 2 25 26
M  V30 26 1 26 27
M  V30 27 1 27 28
M  V30 28 2 28 29
M  V30 29 1 29 30
M  V30 30 2 30 31
M  V30 31 1 31 32
M  V30 32 2 32 33
M  V30 33 1 33 34
M  V30 34 2 34 35
M  V30 35 1 35 36
M  V30 36 2 36 37
M  V30 37 2 27 38
M  V30 38 1 38 39
M  V30 39 2 39 40
M  V30 40 1 40 41
M  V30 41 2 41 42
M  V30 42 1 42 43
M  V30 43 2 43 44
M  V30 44 1 26 45
M  V30 45 1 45 2
M  V30 46 1 24 5
M  V30 47 1 44 25
M  V30 48 1 16 7
M  V30 49 1 23 18
M  V30 50 1 37 28
M  V30 51 1 44 39
M  V30 52 1 15 10
M  V30 53 1 36 31
M  V30 54 1 3 46
M  V30 55 1 8 47
M  V30 56 1 9 48
M  V30 57 1 11 49
M  V30 58 1 12 50
M  V30 59 1 13 51
M  V30 60 1 14 52
M  V30 61 1 17 53
M  V30 62 1 19 54
M  V30 63 1 20 55
M  V30 64 1 21 56
M  V30 65 1 22 57
M  V30 66 1 29 58
M  V30 67 1 30 59
M  V30 68 1 32 60
M  V30 69 1 33 61
M  V30 70 1 34 62
M  V30 71 1 35 63
M  V30 72 1 38 64
M  V30 73 1 40 65
M  V30 74 1 41 66
M  V30 75 1 42 67
M  V30 76 1 43 68
M  V30 END BOND
M  V30 END CTAB
M  END
>  <catalyst_id>  (1) 
ROLSJYFMPAPKSY_UHFFFAOYSA_R

>  <source_smiles>  (1) 
O=P1(O)Oc2c(-c3ccc4ccccc4n3)cc3ccccc3c2-c2c(c(-c3ccc4ccccc4n3)cc3ccccc23)O1

>  <axial_configuration>  (1) 
R

>  <inchikey>  (1) 
ROLSJYFMPAPKSY-UHFFFAOYSA-N

>  <build_source>  (1) 
smiles+axial_free

>  <final_biaryl_angle_deg>  (1) 
85.00

>  <rdkit_version>  (1) 
2025.09.6

>  <random_seed>  (1) 
42

>  <generated_at>  (1) 
2026-05-19T12:33:49

$$$$
