catalyst23
     RDKit          3D

  0  0  0  0  0  0  0  0  0  0999 V3000
M  V30 BEGIN CTAB
M  V30 COUNTS 82 92 0 0 0
M  V30 BEGIN ATOM
M  V30 1 O 0.662334 2.264650 1.290348 0
M  V30 2 P -0.021700 1.282170 0.391580 0
M  V30 3 O -0.837229 2.030081 -0.776274 0
M  V30 4 O -1.138032 0.374962 1.113028 0
M  V30 5 C -1.642342 -0.728901 0.461765 0
M  V30 6 C -3.012762 -0.692285 0.146592 0
M  V30 7 C -3.845882 0.497213 0.415351 0
M  V30 8 C -4.025717 1.410540 -0.634867 0
M  V30 9 C -4.767892 2.580545 -0.477394 0
M  V30 10 C -4.898565 3.462661 -1.564271 0
M  V30 11 C -5.626319 4.642704 -1.448402 0
M  V30 12 C -6.232117 4.952453 -0.241705 0
M  V30 13 C -6.107587 4.080264 0.844590 0
M  V30 14 C -5.373661 2.867160 0.768172 0
M  V30 15 C -5.214465 1.938042 1.858691 0
M  V30 16 C -5.792132 2.144398 3.138639 0
M  V30 17 C -5.632475 1.242764 4.192737 0
M  V30 18 C -4.885465 0.095508 4.004215 0
M  V30 19 C -4.302600 -0.144234 2.762344 0
M  V30 20 C -4.446473 0.752358 1.674461 0
M  V30 21 C -3.580519 -1.812902 -0.459670 0
M  V30 22 C -2.809484 -2.932719 -0.779571 0
M  V30 23 C -3.419677 -4.015184 -1.435911 0
M  V30 24 C -2.681839 -5.128013 -1.827922 0
M  V30 25 C -1.319407 -5.163180 -1.581329 0
M  V30 26 C -0.704280 -4.095179 -0.921933 0
M  V30 27 C -1.423599 -2.960995 -0.464228 0
M  V30 28 C -0.811826 -1.854299 0.233035 0
M  V30 29 C 0.564710 -1.854775 0.688435 0
M  V30 30 C 1.435608 -0.804610 0.307105 0
M  V30 31 C 2.816950 -0.803285 0.563283 0
M  V30 32 C 3.708489 0.268709 0.076779 0
M  V30 33 C 3.858765 1.409531 0.878131 0
M  V30 34 C 4.686170 2.469554 0.506169 0
M  V30 35 C 4.783708 3.591793 1.347175 0
M  V30 36 C 5.600966 4.668745 1.018437 0
M  V30 37 C 6.330291 4.634383 -0.158752 0
M  V30 38 C 6.235948 3.524019 -1.004059 0
M  V30 39 C 5.412339 2.405970 -0.705776 0
M  V30 40 C 5.275145 1.243924 -1.546914 0
M  V30 41 C 5.963122 1.099061 -2.780161 0
M  V30 42 C 5.822058 -0.025298 -3.595813 0
M  V30 43 C 4.981633 -1.050770 -3.206631 0
M  V30 44 C 4.289771 -0.947514 -2.002217 0
M  V30 45 C 4.415838 0.178908 -1.150745 0
M  V30 46 C 3.348908 -1.863036 1.299720 0
M  V30 47 C 2.536016 -2.888978 1.788820 0
M  V30 48 C 3.112144 -3.905238 2.569655 0
M  V30 49 C 2.333698 -4.920733 3.117341 0
M  V30 50 C 0.965305 -4.923318 2.900953 0
M  V30 51 C 0.383078 -3.921572 2.119424 0
M  V30 52 C 1.142875 -2.891237 1.508754 0
M  V30 53 O 0.931695 0.258867 -0.407864 0
M  V30 54 H -1.214400 2.861143 -0.432646 0
M  V30 55 H -3.554668 1.198550 -1.595738 0
M  V30 56 H -4.430112 3.233281 -2.519944 0
M  V30 57 H -5.719207 5.313981 -2.297697 0
M  V30 58 H -6.804247 5.870773 -0.137492 0
M  V30 59 H -6.603543 4.375375 1.764757 0
M  V30 60 H -6.388947 3.028067 3.345553 0
M  V30 61 H -6.092642 1.444429 5.156301 0
M  V30 62 H -4.750786 -0.613566 4.816243 0
M  V30 63 H -3.720451 -1.057564 2.653968 0
M  V30 64 H -4.641687 -1.794152 -0.706906 0
M  V30 65 H -4.484231 -3.993751 -1.662826 0
M  V30 66 H -3.167848 -5.953583 -2.340592 0
M  V30 67 H -0.725961 -6.014744 -1.904042 0
M  V30 68 H 0.373146 -4.160076 -0.780694 0
M  V30 69 H 3.301666 1.470201 1.813748 0
M  V30 70 H 4.210787 3.635594 2.272067 0
M  V30 71 H 5.662697 5.528706 1.679187 0
M  V30 72 H 6.971789 5.469087 -0.428262 0
M  V30 73 H 6.826672 3.554258 -1.914704 0
M  V30 74 H 6.633334 1.874984 -3.138533 0
M  V30 75 H 6.367909 -0.089817 -4.533082 0
M  V30 76 H 4.857451 -1.929093 -3.833649 0
M  V30 77 H 3.632659 -1.772722 -1.734271 0
M  V30 78 H 4.418503 -1.869365 1.509228 0
M  V30 79 H 4.182099 -3.906316 2.770853 0
M  V30 80 H 2.794308 -5.695329 3.724401 0
M  V30 81 H 0.342652 -5.697732 3.341441 0
M  V30 82 H -0.698903 -3.952506 2.003047 0
M  V30 END ATOM
M  V30 BEGIN BOND
M  V30 1 2 1 2
M  V30 2 1 2 3
M  V30 3 1 2 4
M  V30 4 1 4 5
M  V30 5 2 5 6
M  V30 6 1 6 7
M  V30 7 2 7 8
M  V30 8 1 8 9
M  V30 9 2 9 10
M  V30 10 1 10 11
M  V30 11 2 11 12
M  V30 12 1 12 13
M  V30 13 2 13 14
M  V30 14 1 14 15
M  V30 15 2 15 16
M  V30 16 1 16 17
M  V30 17 2 17 18
M  V30 18 1 18 19
M  V30 19 2 19 20
M  V30 20 1 6 21
M  V30 21 2 21 22
M  V30 22 1 22 23
M  V30 23 2 23 24
M  V30 24 1 24 25
M  V30 25 2 25 26
M  V30 26 1 26 27
M  V30 27 2 27 28
M  V30 28 1 28 29
M  V30 29 2 29 30
M  V30 30 1 30 31
M  V30 31 1 31 32
M  V30 32 2 32 33
M  V30 33 1 33 34
M  V30 34 2 34 35
M  V30 35 1 35 36
M  V30 36 2 36 37
M  V30 37 1 37 38
M  V30 38 2 38 39
M  V30 39 1 39 40
M  V30 40 2 40 41
M  V30 41 1 41 42
M  V30 42 2 42 43
M  V30 43 1 43 44
M  V30 44 2 44 45
M  V30 45 2 31 46
M  V30 46 1 46 47
M  V30 47 2 47 48
M  V30 48 1 48 49
M  V30 49 2 49 50
M  V30 50 1 50 51
M  V30 51 2 51 52
M  V30 52 1 30 53
M  V30 53 1 53 2
M  V30 54 1 28 5
M  V30 55 1 52 29
M  V30 56 1 20 7
M  V30 57 1 27 22
M  V30 58 1 45 32
M  V30 59 1 52 47
M  V30 60 1 14 9
M  V30 61 1 20 15
M  V30 62 1 39 34
M  V30 63 1 45 40
M  V30 64 1 3 54
M  V30 65 1 8 55
M  V30 66 1 10 56
M  V30 67 1 11 57
M  V30 68 1 12 58
M  V30 69 1 13 59
M  V30 70 1 16 60
M  V30 71 1 17 61
M  V30 72 1 18 62
M  V30 73 1 19 63
M  V30 74 1 21 64
M  V30 75 1 23 65
M  V30 76 1 24 66
M  V30 77 1 25 67
M  V30 78 1 26 68
M  V30 79 1 33 69
M  V30 80 1 35 70
M  V30 81 1 36 71
M  V30 82 1 37 72
M  V30 83 1 38 73
M  V30 84 1 41 74
M  V30 85 1 42 75
M  V30 86 1 43 76
M  V30 87 1 44 77
M  V30 88 1 46 78
M  V30 89 1 48 79
M  V30 90 1 49 80
M  V30 91 1 50 81
M  V30 92 1 51 82
M  V30 END BOND
M  V30 END CTAB
M  END
>  <catalyst_id>  (1) 
BVICVEIKBNVROI_UHFFFAOYSA_R

>  <source_smiles>  (1) 
O=P1(O)Oc2c(-c3cc4ccccc4c4ccccc34)cc3ccccc3c2-c2c(c(-c3cc4ccccc4c4ccccc34)cc3ccccc23)O1

>  <axial_configuration>  (1) 
R

>  <inchikey>  (1) 
BVICVEIKBNVROI-UHFFFAOYSA-N

>  <build_source>  (1) 
smiles+axial_free

>  <final_biaryl_angle_deg>  (1) 
95.00

>  <rdkit_version>  (1) 
2025.09.6

>  <random_seed>  (1) 
42

>  <generated_at>  (1) 
2026-05-19T12:30:02

$$$$
