catalyst207
     RDKit          3D

  0  0  0  0  0  0  0  0  0  0999 V3000
M  V30 BEGIN CTAB
M  V30 COUNTS 63 66 0 0 0
M  V30 BEGIN ATOM
M  V30 1 C 7.921886 -1.623493 2.254626 0
M  V30 2 O 6.584196 -1.911911 2.642070 0
M  V30 3 C 5.600475 -1.578147 1.753732 0
M  V30 4 C 5.779440 -0.933946 0.531447 0
M  V30 5 C 4.677745 -0.647954 -0.288812 0
M  V30 6 C 3.388451 -1.015664 0.093804 0
M  V30 7 N 2.225082 -0.741182 -0.655116 0
M  V30 8 C 2.046117 -0.457625 -1.984673 0
M  V30 9 S 3.075246 -0.745497 -3.266343 0
M  V30 10 N 0.829892 0.097377 -2.294244 0
M  V30 11 C -0.068320 0.844770 -1.392308 0 CFG=1
M  V30 12 C 0.359055 2.330912 -1.367268 0
M  V30 13 C -0.329843 3.136530 -0.291617 0
M  V30 14 C -1.303181 4.087869 -0.624460 0
M  V30 15 C -1.953088 4.812738 0.375632 0
M  V30 16 C -1.634594 4.596526 1.714994 0
M  V30 17 C -0.663239 3.657893 2.056467 0
M  V30 18 C -0.012061 2.931975 1.058701 0
M  V30 19 C -1.544688 0.683428 -1.815187 0
M  V30 20 P -2.138026 -1.082565 -1.807429 0
M  V30 21 C -3.957966 -0.902520 -1.809634 0
M  V30 22 C -4.769778 -1.841279 -1.151235 0
M  V30 23 C -6.163142 -1.727608 -1.161966 0
M  V30 24 C -6.771941 -0.681168 -1.847153 0
M  V30 25 C -5.987956 0.244427 -2.529027 0
M  V30 26 C -4.593906 0.129516 -2.516706 0
M  V30 27 C -1.785123 -1.574321 -0.087314 0
M  V30 28 C -2.228986 -0.842061 1.023162 0
M  V30 29 C -1.895593 -1.241654 2.319612 0
M  V30 30 C -1.118106 -2.379507 2.522537 0
M  V30 31 C -0.674185 -3.120103 1.429989 0
M  V30 32 C -1.003684 -2.718833 0.133373 0
M  V30 33 C 3.211933 -1.636637 1.335250 0
M  V30 34 C 4.309516 -1.921470 2.153068 0
M  V30 35 H 8.583682 -1.973404 3.052775 0
M  V30 36 H 8.075871 -0.545091 2.143599 0
M  V30 37 H 8.193064 -2.158865 1.338615 0
M  V30 38 H 6.760371 -0.627799 0.183353 0
M  V30 39 H 4.865226 -0.105973 -1.209035 0
M  V30 40 H 1.361936 -0.988103 -0.186369 0
M  V30 41 H 0.731243 0.287449 -3.286314 0
M  V30 42 H 0.053408 0.453674 -0.379492 0
M  V30 43 H 0.185872 2.784271 -2.352220 0
M  V30 44 H 1.442274 2.406193 -1.200399 0
M  V30 45 H -1.564671 4.271727 -1.664035 0
M  V30 46 H -2.707449 5.548873 0.109853 0
M  V30 47 H -2.139846 5.163518 2.492492 0
M  V30 48 H -0.409315 3.493611 3.100495 0
M  V30 49 H 0.748697 2.207028 1.342362 0
M  V30 50 H -1.675144 1.075470 -2.830822 0
M  V30 51 H -2.187235 1.271908 -1.152323 0
M  V30 52 H -4.327056 -2.681211 -0.619031 0
M  V30 53 H -6.769211 -2.462560 -0.638709 0
M  V30 54 H -7.855001 -0.593994 -1.858985 0
M  V30 55 H -6.459907 1.054143 -3.079532 0
M  V30 56 H -4.019506 0.858888 -3.080961 0
M  V30 57 H -2.842811 0.047268 0.894293 0
M  V30 58 H -2.249709 -0.665041 3.170558 0
M  V30 59 H -0.865627 -2.693056 3.532334 0
M  V30 60 H -0.073816 -4.013424 1.584254 0
M  V30 61 H -0.643394 -3.311762 -0.706162 0
M  V30 62 H 2.221197 -1.917343 1.682239 0
M  V30 63 H 4.155227 -2.415215 3.109192 0
M  V30 END ATOM
M  V30 BEGIN BOND
M  V30 1 1 1 2
M  V30 2 1 2 3
M  V30 3 2 3 4
M  V30 4 1 4 5
M  V30 5 2 5 6
M  V30 6 1 6 7
M  V30 7 1 7 8
M  V30 8 2 8 9
M  V30 9 1 8 10
M  V30 10 1 10 11
M  V30 11 1 11 12
M  V30 12 1 12 13
M  V30 13 2 13 14
M  V30 14 1 14 15
M  V30 15 2 15 16
M  V30 16 1 16 17
M  V30 17 2 17 18
M  V30 18 1 11 19
M  V30 19 1 19 20
M  V30 20 1 20 21
M  V30 21 2 21 22
M  V30 22 1 22 23
M  V30 23 2 23 24
M  V30 24 1 24 25
M  V30 25 2 25 26
M  V30 26 1 20 27
M  V30 27 2 27 28
M  V30 28 1 28 29
M  V30 29 2 29 30
M  V30 30 1 30 31
M  V30 31 2 31 32
M  V30 32 1 6 33
M  V30 33 2 33 34
M  V30 34 1 34 3
M  V30 35 1 18 13
M  V30 36 1 26 21
M  V30 37 1 32 27
M  V30 38 1 1 35
M  V30 39 1 1 36
M  V30 40 1 1 37
M  V30 41 1 4 38
M  V30 42 1 5 39
M  V30 43 1 7 40
M  V30 44 1 10 41
M  V30 45 1 11 42 CFG=1
M  V30 46 1 12 43
M  V30 47 1 12 44
M  V30 48 1 14 45
M  V30 49 1 15 46
M  V30 50 1 16 47
M  V30 51 1 17 48
M  V30 52 1 18 49
M  V30 53 1 19 50
M  V30 54 1 19 51
M  V30 55 1 22 52
M  V30 56 1 23 53
M  V30 57 1 24 54
M  V30 58 1 25 55
M  V30 59 1 26 56
M  V30 60 1 28 57
M  V30 61 1 29 58
M  V30 62 1 30 59
M  V30 63 1 31 60
M  V30 64 1 32 61
M  V30 65 1 33 62
M  V30 66 1 34 63
M  V30 END BOND
M  V30 END CTAB
M  END
>  <catalyst_id>  (1) 
NBVNVLCJZQWYJN_VWLOTQADSA_NONE

>  <source_smiles>  (1) 
COc1ccc(NC(=S)N[C@@H](Cc2ccccc2)CP(c2ccccc2)c2ccccc2)cc1

>  <axial_configuration>  (1) 
none

>  <inchikey>  (1) 
NBVNVLCJZQWYJN-VWLOTQADSA-N

>  <build_source>  (1) 
smiles

>  <rdkit_version>  (1) 
2025.09.6

>  <random_seed>  (1) 
42

>  <generated_at>  (1) 
2026-05-19T12:34:18

$$$$
