catalyst361
     RDKit          3D

  0  0  0  0  0  0  0  0  0  0999 V3000
M  V30 BEGIN CTAB
M  V30 COUNTS 85 90 0 0 0
M  V30 BEGIN ATOM
M  V30 1 C 2.536480 -6.614797 1.432848 0
M  V30 2 C 2.033371 -5.375277 1.368151 0
M  V30 3 C 0.826948 -4.913647 2.151386 0 CFG=1
M  V30 4 C 1.141890 -3.676724 3.034758 0
M  V30 5 N 0.214616 -2.544729 2.762064 0
M  V30 6 C -1.167461 -3.004516 3.031754 0
M  V30 7 C -1.555586 -4.207225 2.158575 0
M  V30 8 C -0.376595 -4.571733 1.237820 0 CFG=1
M  V30 9 C -0.084443 -3.317426 0.392965 0
M  V30 10 C 0.372155 -2.164285 1.316812 0 CFG=1
M  V30 11 C -0.332002 -0.801027 0.971833 0 CFG=1
M  V30 12 N -0.125517 0.160107 2.073054 0
M  V30 13 C -0.943479 1.223696 2.369956 0
M  V30 14 S -1.035439 1.682887 3.970317 0
M  V30 15 N -1.556338 1.790101 1.281548 0
M  V30 16 C -2.693314 2.612810 1.160504 0
M  V30 17 C -3.687117 2.728188 2.131484 0
M  V30 18 C -4.815248 3.542279 1.921857 0
M  V30 19 C -5.872274 3.642800 2.996569 0
M  V30 20 F -6.548302 2.472397 3.163263 0
M  V30 21 F -6.820242 4.585426 2.735199 0
M  V30 22 F -5.358202 3.959114 4.215801 0
M  V30 23 C -4.949914 4.223884 0.702717 0
M  V30 24 C -3.978938 4.095426 -0.300384 0
M  V30 25 C -4.110247 4.830933 -1.612716 0
M  V30 26 F -3.714610 4.081365 -2.678738 0
M  V30 27 F -3.357145 5.963803 -1.647258 0
M  V30 28 F -5.387433 5.218967 -1.884456 0
M  V30 29 C -2.855714 3.288128 -0.056515 0
M  V30 30 C 0.161149 -0.232244 -0.356636 0
M  V30 31 C 1.488324 0.232748 -0.421932 0
M  V30 32 C 1.983008 0.779357 -1.597095 0
M  V30 33 C 3.361108 1.295542 -1.732312 0
M  V30 34 C 4.030901 1.235287 -2.967839 0
M  V30 35 C 5.336645 1.714702 -3.119756 0
M  V30 36 C 6.013144 2.281749 -2.036341 0
M  V30 37 C 7.423381 2.789025 -2.192491 0
M  V30 38 C 8.450076 1.697854 -1.929533 0
M  V30 39 C 5.363568 2.352720 -0.800661 0
M  V30 40 C 4.056676 1.871486 -0.653902 0
M  V30 41 N 1.209200 0.866903 -2.702278 0
M  V30 42 C -0.061483 0.444332 -2.662835 0
M  V30 43 C -0.814373 0.590630 -3.816232 0
M  V30 44 C -2.155254 0.210824 -3.873327 0
M  V30 45 C -2.773823 -0.331410 -2.756156 0
M  V30 46 O -4.090077 -0.652876 -2.927140 0
M  V30 47 C -4.814831 -1.065352 -1.775090 0
M  V30 48 C -2.027290 -0.502747 -1.589599 0
M  V30 49 C -0.659365 -0.117755 -1.513122 0
M  V30 50 H 3.410577 -6.890411 0.850171 0
M  V30 51 H 2.095371 -7.381906 2.061838 0
M  V30 52 H 2.524664 -4.650979 0.721049 0
M  V30 53 H 0.514590 -5.727412 2.821672 0
M  V30 54 H 2.177706 -3.336083 2.906834 0
M  V30 55 H 1.063397 -3.954654 4.094326 0
M  V30 56 H -1.879275 -2.184999 2.880285 0
M  V30 57 H -1.262874 -3.270564 4.092253 0
M  V30 58 H -2.442114 -3.963944 1.560453 0
M  V30 59 H -1.818678 -5.062507 2.792305 0
M  V30 60 H -0.643633 -5.417557 0.594361 0
M  V30 61 H 0.691920 -3.526726 -0.351967 0
M  V30 62 H -0.988836 -3.048634 -0.165186 0
M  V30 63 H 1.449897 -2.015834 1.161315 0
M  V30 64 H -1.411120 -0.968483 0.953676 0
M  V30 65 H 0.214822 -0.299298 2.917719 0
M  V30 66 H -0.985411 1.738988 0.447615 0
M  V30 67 H -3.629411 2.172138 3.063165 0
M  V30 68 H -5.823494 4.854871 0.529824 0
M  V30 69 H -2.099625 3.196531 -0.837192 0
M  V30 70 H 2.127248 0.162102 0.454626 0
M  V30 71 H 3.528488 0.804596 -3.833138 0
M  V30 72 H 5.816783 1.643527 -4.093226 0
M  V30 73 H 7.591352 3.628533 -1.506536 0
M  V30 74 H 7.560835 3.192281 -3.203442 0
M  V30 75 H 9.462909 2.094425 -2.052228 0
M  V30 76 H 8.327598 0.859983 -2.624529 0
M  V30 77 H 8.360649 1.305662 -0.910792 0
M  V30 78 H 5.866636 2.790984 0.058855 0
M  V30 79 H 3.584457 1.974660 0.320554 0
M  V30 80 H -0.347985 1.023616 -4.698885 0
M  V30 81 H -2.716023 0.349355 -4.794695 0
M  V30 82 H -5.858603 -1.208857 -2.070079 0
M  V30 83 H -4.440133 -2.022750 -1.398661 0
M  V30 84 H -4.791083 -0.296660 -0.995119 0
M  V30 85 H -2.512185 -0.935690 -0.724109 0
M  V30 END ATOM
M  V30 BEGIN BOND
M  V30 1 2 1 2
M  V30 2 1 2 3
M  V30 3 1 3 4
M  V30 4 1 4 5
M  V30 5 1 5 6
M  V30 6 1 6 7
M  V30 7 1 7 8
M  V30 8 1 8 9
M  V30 9 1 9 10
M  V30 10 1 10 11
M  V30 11 1 11 12
M  V30 12 1 12 13
M  V30 13 2 13 14
M  V30 14 1 13 15
M  V30 15 1 15 16
M  V30 16 2 16 17
M  V30 17 1 17 18
M  V30 18 1 18 19
M  V30 19 1 19 20
M  V30 20 1 19 21
M  V30 21 1 19 22
M  V30 22 2 18 23
M  V30 23 1 23 24
M  V30 24 1 24 25
M  V30 25 1 25 26
M  V30 26 1 25 27
M  V30 27 1 25 28
M  V30 28 2 24 29
M  V30 29 1 11 30
M  V30 30 2 30 31
M  V30 31 1 31 32
M  V30 32 1 32 33
M  V30 33 2 33 34
M  V30 34 1 34 35
M  V30 35 2 35 36
M  V30 36 1 36 37
M  V30 37 1 37 38
M  V30 38 1 36 39
M  V30 39 2 39 40
M  V30 40 2 32 41
M  V30 41 1 41 42
M  V30 42 2 42 43
M  V30 43 1 43 44
M  V30 44 2 44 45
M  V30 45 1 45 46
M  V30 46 1 46 47
M  V30 47 1 45 48
M  V30 48 2 48 49
M  V30 49 1 8 3
M  V30 50 1 29 16
M  V30 51 1 49 30
M  V30 52 1 10 5
M  V30 53 1 40 33
M  V30 54 1 49 42
M  V30 55 1 1 50
M  V30 56 1 1 51
M  V30 57 1 2 52
M  V30 58 1 3 53 CFG=1
M  V30 59 1 4 54
M  V30 60 1 4 55
M  V30 61 1 6 56
M  V30 62 1 6 57
M  V30 63 1 7 58
M  V30 64 1 7 59
M  V30 65 1 8 60 CFG=3
M  V30 66 1 9 61
M  V30 67 1 9 62
M  V30 68 1 10 63 CFG=1
M  V30 69 1 11 64 CFG=3
M  V30 70 1 12 65
M  V30 71 1 15 66
M  V30 72 1 17 67
M  V30 73 1 23 68
M  V30 74 1 29 69
M  V30 75 1 31 70
M  V30 76 1 34 71
M  V30 77 1 35 72
M  V30 78 1 37 73
M  V30 79 1 37 74
M  V30 80 1 38 75
M  V30 81 1 38 76
M  V30 82 1 38 77
M  V30 83 1 39 78
M  V30 84 1 40 79
M  V30 85 1 43 80
M  V30 86 1 44 81
M  V30 87 1 47 82
M  V30 88 1 47 83
M  V30 89 1 47 84
M  V30 90 1 48 85
M  V30 END BOND
M  V30 END CTAB
M  END
>  <catalyst_id>  (1) 
VHMDIYSKKVVDEN_VAZZVVFZSA_NONE

>  <source_smiles>  (1) 
C=C[C@H]1CN2CC[C@H]1C[C@H]2[C@@H](NC(=S)Nc1cc(C(F)(F)F)cc(C(F)(F)F)c1)c1cc(-c2ccc(CC)cc2)nc2ccc(OC)cc12

>  <axial_configuration>  (1) 
none

>  <inchikey>  (1) 
VHMDIYSKKVVDEN-VAZZVVFZSA-N

>  <build_source>  (1) 
smiles

>  <final_biaryl_angle_deg>  (1) 
149.12

>  <rdkit_version>  (1) 
2025.09.6

>  <random_seed>  (1) 
42

>  <generated_at>  (1) 
2026-05-19T12:33:02

$$$$
