catalyst88
     RDKit          3D

  0  0  0  0  0  0  0  0  0  0999 V3000
M  V30 BEGIN CTAB
M  V30 COUNTS 37 37 0 0 0
M  V30 BEGIN ATOM
M  V30 1 C -3.421320 1.365651 -0.503395 0
M  V30 2 C -2.222561 0.410775 -0.275568 0
M  V30 3 C -2.813986 -0.966328 0.095413 0
M  V30 4 C -1.476450 0.270275 -1.616263 0
M  V30 5 C -1.319543 0.959414 0.896493 0 CFG=2
M  V30 6 N -0.716505 2.270166 0.585708 0
M  V30 7 C -0.207962 -0.011160 1.423390 0
M  V30 8 N 0.928096 -0.207858 0.493561 0
M  V30 9 C 1.269475 -1.635380 0.378055 0
M  V30 10 C 2.383304 -1.853817 -0.647343 0
M  V30 11 C 3.622315 -1.035269 -0.305886 0
M  V30 12 C 3.250842 0.425264 -0.079191 0
M  V30 13 C 2.110959 0.556646 0.932346 0
M  V30 14 H -4.130446 0.944384 -1.225985 0
M  V30 15 H -3.107042 2.335866 -0.900756 0
M  V30 16 H -3.968930 1.541148 0.429318 0
M  V30 17 H -3.311143 -0.932316 1.071166 0
M  V30 18 H -2.046587 -1.745423 0.129907 0
M  V30 19 H -3.557000 -1.290523 -0.642851 0
M  V30 20 H -1.028624 1.216615 -1.935931 0
M  V30 21 H -0.686656 -0.483276 -1.570836 0
M  V30 22 H -2.163306 -0.044056 -2.411519 0
M  V30 23 H -1.986477 1.131301 1.752558 0
M  V30 24 H -1.390475 2.877069 0.128887 0
M  V30 25 H 0.024853 2.099992 -0.097362 0
M  V30 26 H -0.678048 -0.967614 1.680952 0
M  V30 27 H 0.155551 0.372013 2.387991 0
M  V30 28 H 1.572556 -2.045053 1.350664 0
M  V30 29 H 0.392872 -2.203052 0.044149 0
M  V30 30 H 2.023175 -1.572217 -1.645132 0
M  V30 31 H 2.643484 -2.917459 -0.690558 0
M  V30 32 H 4.361366 -1.116056 -1.110434 0
M  V30 33 H 4.087976 -1.438895 0.601595 0
M  V30 34 H 4.127746 0.977393 0.277366 0
M  V30 35 H 2.951398 0.880298 -1.031908 0
M  V30 36 H 2.454099 0.210963 1.916841 0
M  V30 37 H 1.872990 1.620519 1.033766 0
M  V30 END ATOM
M  V30 BEGIN BOND
M  V30 1 1 1 2
M  V30 2 1 2 3
M  V30 3 1 2 4
M  V30 4 1 2 5
M  V30 5 1 5 6
M  V30 6 1 5 7
M  V30 7 1 7 8
M  V30 8 1 8 9
M  V30 9 1 9 10
M  V30 10 1 10 11
M  V30 11 1 11 12
M  V30 12 1 12 13
M  V30 13 1 13 8
M  V30 14 1 1 14
M  V30 15 1 1 15
M  V30 16 1 1 16
M  V30 17 1 3 17
M  V30 18 1 3 18
M  V30 19 1 3 19
M  V30 20 1 4 20
M  V30 21 1 4 21
M  V30 22 1 4 22
M  V30 23 1 5 23 CFG=1
M  V30 24 1 6 24
M  V30 25 1 6 25
M  V30 26 1 7 26
M  V30 27 1 7 27
M  V30 28 1 9 28
M  V30 29 1 9 29
M  V30 30 1 10 30
M  V30 31 1 10 31
M  V30 32 1 11 32
M  V30 33 1 11 33
M  V30 34 1 12 34
M  V30 35 1 12 35
M  V30 36 1 13 36
M  V30 37 1 13 37
M  V30 END BOND
M  V30 END CTAB
M  END
>  <catalyst_id>  (1) 
HBVFNLLTORWUQS_SNVBAGLBSA_NONE

>  <source_smiles>  (1) 
CC(C)(C)[C@H](N)CN1CCCCC1

>  <axial_configuration>  (1) 
none

>  <inchikey>  (1) 
HBVFNLLTORWUQS-SNVBAGLBSA-N

>  <build_source>  (1) 
smiles

>  <rdkit_version>  (1) 
2025.09.6

>  <random_seed>  (1) 
42

>  <generated_at>  (1) 
2026-05-19T12:37:16

$$$$
