catalyst61
     RDKit          3D

  0  0  0  0  0  0  0  0  0  0999 V3000
M  V30 BEGIN CTAB
M  V30 COUNTS 92 97 0 0 0
M  V30 BEGIN ATOM
M  V30 1 O 5.090172 1.824267 -0.457053 0
M  V30 2 C 4.539551 0.736573 -0.557651 0
M  V30 3 N 4.754105 -0.348233 0.281534 0
M  V30 4 C 5.671223 -0.449710 1.345500 0
M  V30 5 C 5.609299 -1.609400 2.127758 0
M  V30 6 C 6.479870 -1.805680 3.212232 0
M  V30 7 C 6.367439 -3.048041 4.061482 0
M  V30 8 F 5.944236 -4.135257 3.357357 0
M  V30 9 F 5.477492 -2.895326 5.079782 0
M  V30 10 F 7.544521 -3.412315 4.639148 0
M  V30 11 C 7.421732 -0.811428 3.512250 0
M  V30 12 C 7.512482 0.350572 2.730125 0
M  V30 13 C 8.520365 1.429212 3.052496 0
M  V30 14 F 7.958267 2.488201 3.695815 0
M  V30 15 F 9.133258 1.934720 1.947870 0
M  V30 16 F 9.524517 0.991932 3.864448 0
M  V30 17 C 6.627516 0.519960 1.650304 0
M  V30 18 N 3.598504 0.413536 -1.515000 0
M  V30 19 C 3.009261 1.240726 -2.493697 0
M  V30 20 C 3.277124 2.599458 -2.647705 0
M  V30 21 C 2.618914 3.347536 -3.642567 0
M  V30 22 C 2.930245 4.816351 -3.801749 0
M  V30 23 F 2.873639 5.500294 -2.625779 0
M  V30 24 F 2.076782 5.462087 -4.646309 0
M  V30 25 F 4.177945 5.031095 -4.303158 0
M  V30 26 C 1.697098 2.707874 -4.488652 0
M  V30 27 C 1.419189 1.349298 -4.338544 0
M  V30 28 C 2.058148 0.632133 -3.332910 0
M  V30 29 O 1.832693 -0.708423 -3.156587 0
M  V30 30 C 0.488793 -1.043882 -2.725517 0 CFG=1
M  V30 31 C 0.521554 -2.569650 -2.456311 0
M  V30 32 C 0.997249 -2.605033 -1.030708 0
M  V30 33 C 1.567787 -3.660191 -0.340939 0
M  V30 34 C 1.909731 -3.466048 0.999862 0
M  V30 35 C 1.671069 -2.234283 1.630894 0
M  V30 36 C 1.087707 -1.177790 0.929642 0
M  V30 37 C 0.758248 -1.377329 -0.401748 0
M  V30 38 C 0.091120 -0.410006 -1.349507 0 CFG=2
M  V30 39 N -1.351607 -0.422720 -1.109386 0
M  V30 40 C -2.273383 0.456744 -1.582972 0
M  V30 41 S -1.959289 1.773931 -2.554645 0
M  V30 42 N -3.564089 0.223064 -1.234063 0
M  V30 43 C -4.145231 -0.765060 -0.316348 0 CFG=2
M  V30 44 C -4.146512 -2.175202 -0.928925 0
M  V30 45 C -4.752733 -3.195011 0.032456 0
M  V30 46 C -6.155248 -2.795094 0.479821 0
M  V30 47 C -6.191903 -1.379790 1.057318 0
M  V30 48 C -5.609292 -0.359801 0.060895 0 CFG=1
M  V30 49 N -5.685142 1.052084 0.492545 0
M  V30 50 C -5.128799 1.347916 1.809605 0
M  V30 51 C -4.883318 2.855958 1.945166 0
M  V30 52 C -5.976834 3.709039 1.297855 0
M  V30 53 C -7.261324 2.912331 1.123951 0
M  V30 54 C -7.021767 1.636581 0.304540 0
M  V30 55 H 4.097541 -1.110359 0.183023 0
M  V30 56 H 4.874335 -2.380280 1.900136 0
M  V30 57 H 8.095608 -0.944652 4.360489 0
M  V30 58 H 6.714029 1.428484 1.057763 0
M  V30 59 H 3.318021 -0.556536 -1.581729 0
M  V30 60 H 3.993618 3.107325 -2.006458 0
M  V30 61 H 1.186465 3.270729 -5.269365 0
M  V30 62 H 0.711135 0.866419 -5.005223 0
M  V30 63 H -0.212455 -0.819645 -3.536760 0
M  V30 64 H -0.480264 -3.007256 -2.518082 0
M  V30 65 H 1.213650 -3.094823 -3.121371 0
M  V30 66 H 1.741834 -4.618157 -0.822145 0
M  V30 67 H 2.352332 -4.283279 1.566337 0
M  V30 68 H 1.930688 -2.106745 2.680081 0
M  V30 69 H 0.892054 -0.227302 1.418755 0
M  V30 70 H 0.482365 0.600187 -1.205066 0
M  V30 71 H -1.670175 -1.096717 -0.431295 0
M  V30 72 H -4.190054 0.989270 -1.471377 0
M  V30 73 H -3.519524 -0.774516 0.584423 0
M  V30 74 H -3.132235 -2.494273 -1.190740 0
M  V30 75 H -4.715059 -2.171395 -1.868076 0
M  V30 76 H -4.788032 -4.178638 -0.449410 0
M  V30 77 H -4.104611 -3.294202 0.911994 0
M  V30 78 H -6.518728 -3.507173 1.229395 0
M  V30 79 H -6.840298 -2.855881 -0.374897 0
M  V30 80 H -5.623127 -1.366990 1.995233 0
M  V30 81 H -7.228569 -1.130541 1.308841 0
M  V30 82 H -6.190681 -0.432482 -0.870953 0
M  V30 83 H -5.803150 1.004728 2.604686 0
M  V30 84 H -4.170529 0.842988 1.971222 0
M  V30 85 H -3.918357 3.121077 1.495200 0
M  V30 86 H -4.806953 3.103287 3.010921 0
M  V30 87 H -6.158078 4.606939 1.898958 0
M  V30 88 H -5.632028 4.054362 0.314898 0
M  V30 89 H -8.025183 3.527942 0.635779 0
M  V30 90 H -7.653490 2.644313 2.113405 0
M  V30 91 H -7.136951 1.874869 -0.759916 0
M  V30 92 H -7.817515 0.926154 0.557105 0
M  V30 END ATOM
M  V30 BEGIN BOND
M  V30 1 2 1 2
M  V30 2 1 2 3
M  V30 3 1 3 4
M  V30 4 2 4 5
M  V30 5 1 5 6
M  V30 6 1 6 7
M  V30 7 1 7 8
M  V30 8 1 7 9
M  V30 9 1 7 10
M  V30 10 2 6 11
M  V30 11 1 11 12
M  V30 12 1 12 13
M  V30 13 1 13 14
M  V30 14 1 13 15
M  V30 15 1 13 16
M  V30 16 2 12 17
M  V30 17 1 2 18
M  V30 18 1 18 19
M  V30 19 2 19 20
M  V30 20 1 20 21
M  V30 21 1 21 22
M  V30 22 1 22 23
M  V30 23 1 22 24
M  V30 24 1 22 25
M  V30 25 2 21 26
M  V30 26 1 26 27
M  V30 27 2 27 28
M  V30 28 1 28 29
M  V30 29 1 29 30
M  V30 30 1 30 31
M  V30 31 1 31 32
M  V30 32 2 32 33
M  V30 33 1 33 34
M  V30 34 2 34 35
M  V30 35 1 35 36
M  V30 36 2 36 37
M  V30 37 1 37 38
M  V30 38 1 38 39
M  V30 39 1 39 40
M  V30 40 2 40 41
M  V30 41 1 40 42
M  V30 42 1 42 43
M  V30 43 1 43 44
M  V30 44 1 44 45
M  V30 45 1 45 46
M  V30 46 1 46 47
M  V30 47 1 47 48
M  V30 48 1 48 49
M  V30 49 1 49 50
M  V30 50 1 50 51
M  V30 51 1 51 52
M  V30 52 1 52 53
M  V30 53 1 53 54
M  V30 54 1 17 4
M  V30 55 1 28 19
M  V30 56 1 38 30
M  V30 57 1 48 43
M  V30 58 1 54 49
M  V30 59 1 37 32
M  V30 60 1 3 55
M  V30 61 1 5 56
M  V30 62 1 11 57
M  V30 63 1 17 58
M  V30 64 1 18 59
M  V30 65 1 20 60
M  V30 66 1 26 61
M  V30 67 1 27 62
M  V30 68 1 30 63 CFG=3
M  V30 69 1 31 64
M  V30 70 1 31 65
M  V30 71 1 33 66
M  V30 72 1 34 67
M  V30 73 1 35 68
M  V30 74 1 36 69
M  V30 75 1 38 70 CFG=3
M  V30 76 1 39 71
M  V30 77 1 42 72
M  V30 78 1 43 73 CFG=1
M  V30 79 1 44 74
M  V30 80 1 44 75
M  V30 81 1 45 76
M  V30 82 1 45 77
M  V30 83 1 46 78
M  V30 84 1 46 79
M  V30 85 1 47 80
M  V30 86 1 47 81
M  V30 87 1 48 82 CFG=3
M  V30 88 1 50 83
M  V30 89 1 50 84
M  V30 90 1 51 85
M  V30 91 1 51 86
M  V30 92 1 52 87
M  V30 93 1 52 88
M  V30 94 1 53 89
M  V30 95 1 53 90
M  V30 96 1 54 91
M  V30 97 1 54 92
M  V30 END BOND
M  V30 END CTAB
M  END
>  <catalyst_id>  (1) 
FTXLQWCNKXKUQB_MJQBZTMYSA_NONE

>  <source_smiles>  (1) 
O=C(Nc1cc(C(F)(F)F)cc(C(F)(F)F)c1)Nc1cc(C(F)(F)F)ccc1O[C@H]1Cc2ccccc2[C@@H]1NC(=S)N[C@@H]1CCCC[C@H]1N1CCCCC1

>  <axial_configuration>  (1) 
none

>  <inchikey>  (1) 
FTXLQWCNKXKUQB-MJQBZTMYSA-N

>  <build_source>  (1) 
smiles

>  <rdkit_version>  (1) 
2025.09.6

>  <random_seed>  (1) 
42

>  <generated_at>  (1) 
2026-05-19T12:34:27

$$$$
