catalyst254
     RDKit          3D

  0  0  0  0  0  0  0  0  0  0999 V3000
M  V30 BEGIN CTAB
M  V30 COUNTS 113 120 0 0 0
M  V30 BEGIN ATOM
M  V30 1 C -6.302642 1.437712 -4.087246 0
M  V30 2 C -5.270868 1.403296 -3.002621 0
M  V30 3 O -4.100486 1.095609 -3.173805 0
M  V30 4 O -5.833428 1.725900 -1.806686 0
M  V30 5 C -4.932384 1.760309 -0.690239 0
M  V30 6 C -4.542329 0.367983 -0.159352 0 CFG=1
M  V30 7 O -3.574418 0.567516 0.875884 0
M  V30 8 C -3.023087 -0.651310 1.363426 0 CFG=1
M  V30 9 N -1.998603 -0.265430 2.316644 0
M  V30 10 C -0.793745 0.303690 2.027735 0
M  V30 11 S 0.409520 0.234789 3.176959 0
M  V30 12 N -0.705814 0.857604 0.787269 0
M  V30 13 C 0.469684 1.482311 0.141560 0 CFG=2
M  V30 14 C -0.011192 2.537245 -0.858423 0
M  V30 15 C -0.937996 2.240985 -1.871439 0
M  V30 16 C -1.375805 3.225133 -2.761186 0
M  V30 17 C -0.911480 4.530844 -2.643056 0
M  V30 18 C -0.015807 4.854383 -1.628774 0
M  V30 19 C 0.423986 3.868619 -0.741161 0
M  V30 20 C 1.525480 0.396067 -0.397090 0 CFG=1
M  V30 21 C 0.862912 -0.549424 -1.416989 0
M  V30 22 C 0.866107 -0.272766 -2.794590 0
M  V30 23 C 0.252004 -1.141212 -3.698152 0
M  V30 24 C -0.368338 -2.301386 -3.239908 0
M  V30 25 C -0.372626 -2.597375 -1.878677 0
M  V30 26 C 0.239737 -1.729099 -0.973569 0
M  V30 27 N 2.858697 0.908874 -0.871803 0
M  V30 28 C 3.450182 1.850955 0.109894 0
M  V30 29 C 4.908033 2.200889 -0.149365 0
M  V30 30 C 5.234944 3.448944 -0.688453 0
M  V30 31 C 6.556314 3.754245 -0.997805 0
M  V30 32 C 7.573562 2.808190 -0.824844 0
M  V30 33 C 8.889781 3.128976 -1.198689 0
M  V30 34 C 9.917630 2.195335 -1.087937 0
M  V30 35 C 9.639065 0.923187 -0.611699 0
M  V30 36 C 8.336110 0.593494 -0.230353 0
M  V30 37 C 7.270609 1.526011 -0.298077 0
M  V30 38 C 5.924929 1.239126 0.100673 0
M  V30 39 C 5.512891 -0.077193 0.679355 0
M  V30 40 C 4.508384 -0.813930 -0.005107 0
M  V30 41 C 4.112010 -2.070571 0.461495 0
M  V30 42 C 4.673589 -2.594574 1.620833 0
M  V30 43 C 5.607213 -1.861427 2.363651 0
M  V30 44 C 6.112082 -2.392654 3.562636 0
M  V30 45 C 7.007525 -1.671224 4.349128 0
M  V30 46 C 7.402424 -0.402938 3.950670 0
M  V30 47 C 6.913336 0.134631 2.757721 0
M  V30 48 C 6.024456 -0.580807 1.917237 0
M  V30 49 C 3.800106 -0.198802 -1.201810 0
M  V30 50 C -4.114546 -1.539675 1.989466 0 CFG=2
M  V30 51 O -3.596631 -2.864856 2.287524 0
M  V30 52 C -2.973599 -3.013109 3.485544 0
M  V30 53 C -2.537170 -4.432016 3.675434 0
M  V30 54 O -2.777544 -2.109238 4.284482 0
M  V30 55 C -5.276579 -1.738397 1.004064 0 CFG=1
M  V30 56 O -6.351964 -2.352041 1.764887 0
M  V30 57 C -7.101317 -3.297001 1.139333 0
M  V30 58 C -8.150491 -3.819713 2.071357 0
M  V30 59 O -6.956327 -3.665673 -0.017247 0
M  V30 60 C -5.753375 -0.408620 0.389413 0 CFG=2
M  V30 61 O -6.655369 -0.679534 -0.705639 0
M  V30 62 C -7.986458 -0.647426 -0.429782 0
M  V30 63 C -8.778321 -0.927733 -1.669274 0
M  V30 64 O -8.478120 -0.411386 0.664176 0
M  V30 65 H -6.948685 0.560727 -4.009166 0
M  V30 66 H -5.803677 1.432303 -5.060516 0
M  V30 67 H -6.891887 2.355802 -4.015528 0
M  V30 68 H -5.426141 2.331700 0.105017 0
M  V30 69 H -4.038074 2.342331 -0.947488 0
M  V30 70 H -4.083477 -0.203317 -0.976005 0
M  V30 71 H -2.518894 -1.182595 0.546170 0
M  V30 72 H -2.051485 -0.672150 3.251175 0
M  V30 73 H -1.603689 1.109475 0.390583 0
M  V30 74 H 0.963318 2.028358 0.953704 0
M  V30 75 H -1.339350 1.235519 -1.984558 0
M  V30 76 H -2.083899 2.963584 -3.543818 0
M  V30 77 H -1.252737 5.295363 -3.335195 0
M  V30 78 H 0.339121 5.876153 -1.523137 0
M  V30 79 H 1.105059 4.159416 0.054965 0
M  V30 80 H 1.755328 -0.232890 0.473082 0
M  V30 81 H 1.347126 0.630719 -3.167036 0
M  V30 82 H 0.258235 -0.908320 -4.759711 0
M  V30 83 H -0.844983 -2.975859 -3.946197 0
M  V30 84 H -0.849259 -3.506711 -1.523107 0
M  V30 85 H 0.231120 -1.976393 0.085954 0
M  V30 86 H 2.887910 2.786965 0.085727 0
M  V30 87 H 3.356208 1.480470 1.140118 0
M  V30 88 H 4.459224 4.185036 -0.886164 0
M  V30 89 H 6.780179 4.734432 -1.413786 0
M  V30 90 H 9.123763 4.115103 -1.594676 0
M  V30 91 H 10.928490 2.458542 -1.386553 0
M  V30 92 H 10.428983 0.180657 -0.536946 0
M  V30 93 H 8.158625 -0.421223 0.120358 0
M  V30 94 H 3.349422 -2.638462 -0.066626 0
M  V30 95 H 4.344375 -3.573524 1.962799 0
M  V30 96 H 5.797786 -3.377159 3.902950 0
M  V30 97 H 7.382381 -2.094462 5.276842 0
M  V30 98 H 8.086760 0.176146 4.564849 0
M  V30 99 H 7.233887 1.139931 2.491539 0
M  V30 100 H 4.552183 0.176922 -1.909522 0
M  V30 101 H 3.319025 -0.993770 -1.781724 0
M  V30 102 H -4.513769 -1.082833 2.905892 0
M  V30 103 H -3.400613 -5.098382 3.604733 0
M  V30 104 H -2.093973 -4.544719 4.668943 0
M  V30 105 H -1.787565 -4.691734 2.923965 0
M  V30 106 H -4.956436 -2.427057 0.210547 0
M  V30 107 H -8.734011 -4.592550 1.562956 0
M  V30 108 H -8.823264 -3.009731 2.363753 0
M  V30 109 H -7.677089 -4.263920 2.950560 0
M  V30 110 H -6.245788 0.192749 1.165031 0
M  V30 111 H -9.812465 -1.153218 -1.393809 0
M  V30 112 H -8.369239 -1.799577 -2.186759 0
M  V30 113 H -8.762501 -0.052159 -2.321785 0
M  V30 END ATOM
M  V30 BEGIN BOND
M  V30 1 1 1 2
M  V30 2 2 2 3
M  V30 3 1 2 4
M  V30 4 1 4 5
M  V30 5 1 5 6
M  V30 6 1 6 7
M  V30 7 1 7 8
M  V30 8 1 8 9
M  V30 9 1 9 10
M  V30 10 2 10 11
M  V30 11 1 10 12
M  V30 12 1 12 13
M  V30 13 1 13 14
M  V30 14 2 14 15
M  V30 15 1 15 16
M  V30 16 2 16 17
M  V30 17 1 17 18
M  V30 18 2 18 19
M  V30 19 1 13 20
M  V30 20 1 20 21
M  V30 21 2 21 22
M  V30 22 1 22 23
M  V30 23 2 23 24
M  V30 24 1 24 25
M  V30 25 2 25 26
M  V30 26 1 20 27
M  V30 27 1 27 28
M  V30 28 1 28 29
M  V30 29 2 29 30
M  V30 30 1 30 31
M  V30 31 2 31 32
M  V30 32 1 32 33
M  V30 33 2 33 34
M  V30 34 1 34 35
M  V30 35 2 35 36
M  V30 36 1 36 37
M  V30 37 2 37 38
M  V30 38 1 38 39
M  V30 39 2 39 40
M  V30 40 1 40 41
M  V30 41 2 41 42
M  V30 42 1 42 43
M  V30 43 2 43 44
M  V30 44 1 44 45
M  V30 45 2 45 46
M  V30 46 1 46 47
M  V30 47 2 47 48
M  V30 48 1 40 49
M  V30 49 1 8 50
M  V30 50 1 50 51
M  V30 51 1 51 52
M  V30 52 1 52 53
M  V30 53 2 52 54
M  V30 54 1 50 55
M  V30 55 1 55 56
M  V30 56 1 56 57
M  V30 57 1 57 58
M  V30 58 2 57 59
M  V30 59 1 55 60
M  V30 60 1 60 61
M  V30 61 1 61 62
M  V30 62 1 62 63
M  V30 63 2 62 64
M  V30 64 1 60 6
M  V30 65 1 19 14
M  V30 66 1 26 21
M  V30 67 1 49 27
M  V30 68 1 38 29
M  V30 69 1 48 39
M  V30 70 1 37 32
M  V30 71 1 48 43
M  V30 72 1 1 65
M  V30 73 1 1 66
M  V30 74 1 1 67
M  V30 75 1 5 68
M  V30 76 1 5 69
M  V30 77 1 6 70 CFG=3
M  V30 78 1 8 71 CFG=3
M  V30 79 1 9 72
M  V30 80 1 12 73
M  V30 81 1 13 74 CFG=1
M  V30 82 1 15 75
M  V30 83 1 16 76
M  V30 84 1 17 77
M  V30 85 1 18 78
M  V30 86 1 19 79
M  V30 87 1 20 80 CFG=1
M  V30 88 1 22 81
M  V30 89 1 23 82
M  V30 90 1 24 83
M  V30 91 1 25 84
M  V30 92 1 26 85
M  V30 93 1 28 86
M  V30 94 1 28 87
M  V30 95 1 30 88
M  V30 96 1 31 89
M  V30 97 1 33 90
M  V30 98 1 34 91
M  V30 99 1 35 92
M  V30 100 1 36 93
M  V30 101 1 41 94
M  V30 102 1 42 95
M  V30 103 1 44 96
M  V30 104 1 45 97
M  V30 105 1 46 98
M  V30 106 1 47 99
M  V30 107 1 49 100
M  V30 108 1 49 101
M  V30 109 1 50 102 CFG=1
M  V30 110 1 53 103
M  V30 111 1 53 104
M  V30 112 1 53 105
M  V30 113 1 55 106 CFG=3
M  V30 114 1 58 107
M  V30 115 1 58 108
M  V30 116 1 58 109
M  V30 117 1 60 110 CFG=1
M  V30 118 1 63 111
M  V30 119 1 63 112
M  V30 120 1 63 113
M  V30 END BOND
M  V30 END CTAB
M  END
>  <catalyst_id>  (1) 
PHTKELPBNVPHQU_AGHOZYMLSA_S

>  <source_smiles>  (1) 
CC(=O)OC[C@H]1O[C@@H](NC(=S)N[C@H](c2ccccc2)[C@@H](c2ccccc2)N2Cc3ccc4ccccc4c3-c3c(ccc4ccccc34)C2)[C@H](OC(C)=O)[C@@H](OC(C)=O)[C@@H]1OC(C)=O

>  <axial_configuration>  (1) 
S

>  <inchikey>  (1) 
PHTKELPBNVPHQU-AGHOZYMLSA-N

>  <build_source>  (1) 
smiles+axial_bridged

>  <final_biaryl_angle_deg>  (1) 
-120.86

>  <n_valid_conformers>  (1) 
9

>  <rdkit_version>  (1) 
2025.09.6

>  <random_seed>  (1) 
42

>  <generated_at>  (1) 
2026-05-19T12:39:18

$$$$
