catalyst236
     RDKit          3D

  0  0  0  0  0  0  0  0  0  0999 V3000
M  V30 BEGIN CTAB
M  V30 COUNTS 75 80 0 0 0
M  V30 BEGIN ATOM
M  V30 1 C -5.262855 -3.753383 -2.028902 0
M  V30 2 C -4.978941 -2.701730 -0.963909 0
M  V30 3 C -3.781041 -3.071593 -0.072219 0 CFG=1
M  V30 4 C -2.431610 -3.023964 -0.829736 0
M  V30 5 N -1.452920 -2.121933 -0.170908 0
M  V30 6 C -1.213462 -2.616653 1.205180 0
M  V30 7 C -2.508263 -2.688137 2.026638 0
M  V30 8 C -3.678687 -2.163349 1.177255 0 CFG=1
M  V30 9 C -3.315769 -0.724501 0.774359 0
M  V30 10 C -2.060031 -0.741128 -0.125649 0 CFG=1
M  V30 11 C -1.011196 0.378466 0.257815 0 CFG=1
M  V30 12 N 0.278679 0.033686 -0.387749 0
M  V30 13 C 1.446623 0.526665 -0.023677 0
M  V30 14 C 2.767847 0.301030 -0.330478 0
M  V30 15 N 3.414016 -0.532628 -1.119651 0
M  V30 16 C 4.769360 -0.584042 -1.511857 0
M  V30 17 C 5.646586 0.500731 -1.424409 0
M  V30 18 C 7.002813 0.383817 -1.779580 0
M  V30 19 C 7.926202 1.574018 -1.661422 0
M  V30 20 F 7.298965 2.764283 -1.868680 0
M  V30 21 F 8.511885 1.658179 -0.436844 0
M  V30 22 F 8.949160 1.535370 -2.561850 0
M  V30 23 C 7.490235 -0.858442 -2.210495 0
M  V30 24 C 6.637192 -1.965123 -2.309636 0
M  V30 25 C 7.162008 -3.310241 -2.749403 0
M  V30 26 F 6.233271 -4.047513 -3.420222 0
M  V30 27 F 7.562323 -4.077217 -1.699446 0
M  V30 28 F 8.235826 -3.219206 -3.581452 0
M  V30 29 C 5.287314 -1.814313 -1.948687 0
M  V30 30 C 3.218625 1.340460 0.627699 0
M  V30 31 O 4.236440 1.829969 1.054931 0
M  V30 32 C 1.796314 1.584789 0.955853 0
M  V30 33 O 1.253677 2.311896 1.750317 0
M  V30 34 C -1.486647 1.754002 -0.204616 0
M  V30 35 C -1.421260 2.059231 -1.574729 0
M  V30 36 C -1.885750 3.279345 -2.016585 0
M  V30 37 N -2.416925 4.210310 -1.205417 0
M  V30 38 C -2.481820 3.943430 0.107344 0
M  V30 39 C -3.029028 4.919028 0.927524 0
M  V30 40 C -3.151618 4.750347 2.309467 0
M  V30 41 C -2.709640 3.575267 2.896298 0
M  V30 42 O -2.766024 3.266673 4.226656 0
M  V30 43 C -3.199817 4.297635 5.105595 0
M  V30 44 C -2.155041 2.580454 2.085500 0
M  V30 45 C -2.031108 2.730043 0.679963 0
M  V30 46 H -4.424110 -3.863086 -2.722377 0
M  V30 47 H -5.461387 -4.728417 -1.572617 0
M  V30 48 H -6.144279 -3.468336 -2.612212 0
M  V30 49 H -4.813690 -1.736560 -1.455902 0
M  V30 50 H -5.875198 -2.593660 -0.341162 0
M  V30 51 H -3.936037 -4.100713 0.281876 0
M  V30 52 H -2.007317 -4.034686 -0.888682 0
M  V30 53 H -2.560924 -2.705410 -1.871087 0
M  V30 54 H -0.479868 -1.981682 1.715355 0
M  V30 55 H -0.748518 -3.609610 1.159589 0
M  V30 56 H -2.404904 -2.090135 2.940009 0
M  V30 57 H -2.700390 -3.721946 2.337592 0
M  V30 58 H -4.606865 -2.181760 1.758541 0
M  V30 59 H -3.149923 -0.138337 1.684157 0
M  V30 60 H -4.149395 -0.251984 0.242676 0
M  V30 61 H -2.385195 -0.525545 -1.153913 0
M  V30 62 H -0.844300 0.345088 1.338000 0
M  V30 63 H 0.213896 -0.910844 -0.785006 0
M  V30 64 H 2.868637 -1.248620 -1.599384 0
M  V30 65 H 5.287770 1.476514 -1.105838 0
M  V30 66 H 8.544607 -0.962322 -2.472645 0
M  V30 67 H 4.632974 -2.684876 -1.998216 0
M  V30 68 H -1.008831 1.353805 -2.289892 0
M  V30 69 H -1.845541 3.548141 -3.068089 0
M  V30 70 H -3.373098 5.846869 0.474966 0
M  V30 71 H -3.592681 5.555921 2.885861 0
M  V30 72 H -2.552192 5.177959 5.035135 0
M  V30 73 H -3.131879 3.915079 6.128554 0
M  V30 74 H -4.246033 4.559737 4.916970 0
M  V30 75 H -1.801237 1.685388 2.587896 0
M  V30 END ATOM
M  V30 BEGIN BOND
M  V30 1 1 1 2
M  V30 2 1 2 3
M  V30 3 1 3 4
M  V30 4 1 4 5
M  V30 5 1 5 6
M  V30 6 1 6 7
M  V30 7 1 7 8
M  V30 8 1 8 9
M  V30 9 1 9 10
M  V30 10 1 10 11
M  V30 11 1 11 12
M  V30 12 1 12 13
M  V30 13 2 13 14
M  V30 14 1 14 15
M  V30 15 1 15 16
M  V30 16 2 16 17
M  V30 17 1 17 18
M  V30 18 1 18 19
M  V30 19 1 19 20
M  V30 20 1 19 21
M  V30 21 1 19 22
M  V30 22 2 18 23
M  V30 23 1 23 24
M  V30 24 1 24 25
M  V30 25 1 25 26
M  V30 26 1 25 27
M  V30 27 1 25 28
M  V30 28 2 24 29
M  V30 29 1 14 30
M  V30 30 2 30 31
M  V30 31 1 30 32
M  V30 32 2 32 33
M  V30 33 1 11 34
M  V30 34 2 34 35
M  V30 35 1 35 36
M  V30 36 2 36 37
M  V30 37 1 37 38
M  V30 38 2 38 39
M  V30 39 1 39 40
M  V30 40 2 40 41
M  V30 41 1 41 42
M  V30 42 1 42 43
M  V30 43 1 41 44
M  V30 44 2 44 45
M  V30 45 1 8 3
M  V30 46 1 32 13
M  V30 47 1 45 34
M  V30 48 1 10 5
M  V30 49 1 29 16
M  V30 50 1 45 38
M  V30 51 1 1 46
M  V30 52 1 1 47
M  V30 53 1 1 48
M  V30 54 1 2 49
M  V30 55 1 2 50
M  V30 56 1 3 51 CFG=1
M  V30 57 1 4 52
M  V30 58 1 4 53
M  V30 59 1 6 54
M  V30 60 1 6 55
M  V30 61 1 7 56
M  V30 62 1 7 57
M  V30 63 1 8 58 CFG=1
M  V30 64 1 9 59
M  V30 65 1 9 60
M  V30 66 1 10 61 CFG=3
M  V30 67 1 11 62 CFG=1
M  V30 68 1 12 63
M  V30 69 1 15 64
M  V30 70 1 17 65
M  V30 71 1 23 66
M  V30 72 1 29 67
M  V30 73 1 35 68
M  V30 74 1 36 69
M  V30 75 1 39 70
M  V30 76 1 40 71
M  V30 77 1 43 72
M  V30 78 1 43 73
M  V30 79 1 43 74
M  V30 80 1 44 75
M  V30 END BOND
M  V30 END CTAB
M  END
>  <catalyst_id>  (1) 
OFXKFCTYZMFMJB_FRSFCCSCSA_NONE

>  <source_smiles>  (1) 
CC[C@H]1CN2CC[C@H]1C[C@H]2[C@@H](Nc1c(Nc2cc(C(F)(F)F)cc(C(F)(F)F)c2)c(=O)c1=O)c1ccnc2ccc(OC)cc12

>  <axial_configuration>  (1) 
none

>  <inchikey>  (1) 
OFXKFCTYZMFMJB-FRSFCCSCSA-N

>  <build_source>  (1) 
smiles

>  <rdkit_version>  (1) 
2025.09.6

>  <random_seed>  (1) 
42

>  <generated_at>  (1) 
2026-05-19T12:36:51

$$$$
