catalyst366
     RDKit          3D

  0  0  0  0  0  0  0  0  0  0999 V3000
M  V30 BEGIN CTAB
M  V30 COUNTS 65 69 0 0 0
M  V30 BEGIN ATOM
M  V30 1 C -6.705762 2.050402 -0.279823 0
M  V30 2 C -5.457090 1.569414 -0.338140 0
M  V30 3 C -4.222122 2.435921 -0.417276 0 CFG=1
M  V30 4 C -3.225164 2.139177 0.735316 0
M  V30 5 N -1.873534 1.769940 0.230231 0
M  V30 6 C -1.357374 2.904704 -0.573967 0
M  V30 7 C -2.289854 3.263088 -1.740687 0
M  V30 8 C -3.475623 2.282450 -1.765996 0 CFG=1
M  V30 9 C -2.867938 0.874142 -1.900491 0
M  V30 10 C -2.035519 0.547819 -0.638378 0 CFG=1
M  V30 11 C -0.657884 -0.122155 -0.982582 0 CFG=1
M  V30 12 N 0.241942 -0.056930 0.169157 0
M  V30 13 C 1.608661 -0.091819 -0.019025 0
M  V30 14 O 2.127863 -0.223208 -1.118508 0
M  V30 15 N 2.257750 0.037336 1.189793 0
M  V30 16 C 3.643560 0.119149 1.419137 0
M  V30 17 C 4.591998 0.249586 0.402995 0
M  V30 18 C 5.963802 0.334546 0.698556 0
M  V30 19 C 6.969827 0.449594 -0.422390 0
M  V30 20 F 8.179034 0.920374 -0.004105 0
M  V30 21 F 6.570187 1.292665 -1.413669 0
M  V30 22 F 7.223251 -0.746567 -1.018822 0
M  V30 23 C 6.377594 0.279596 2.038416 0
M  V30 24 C 5.439848 0.165107 3.075140 0
M  V30 25 C 5.887355 0.091539 4.514958 0
M  V30 26 F 7.036799 0.781561 4.752135 0
M  V30 27 F 6.124460 -1.186178 4.917350 0
M  V30 28 F 4.965999 0.593872 5.383749 0
M  V30 29 C 4.075596 0.081184 2.750223 0
M  V30 30 C -0.809016 -1.547538 -1.507860 0
M  V30 31 C -0.486526 -1.767406 -2.855483 0
M  V30 32 C -0.643898 -3.030318 -3.386834 0
M  V30 33 N -1.102125 -4.082967 -2.686224 0
M  V30 34 C -1.389941 -3.901174 -1.388921 0
M  V30 35 C -1.837657 -5.004949 -0.675801 0
M  V30 36 C -2.156891 -4.932396 0.679989 0
M  V30 37 C -2.022465 -3.726447 1.347830 0
M  V30 38 C -1.576301 -2.601811 0.652952 0
M  V30 39 C -1.258516 -2.654027 -0.728851 0
M  V30 40 H -7.557085 1.378271 -0.222221 0
M  V30 41 H -6.912253 3.116197 -0.291646 0
M  V30 42 H -5.317551 0.489873 -0.321656 0
M  V30 43 H -4.529006 3.487760 -0.324935 0
M  V30 44 H -3.592630 1.345426 1.398759 0
M  V30 45 H -3.134180 3.025818 1.376854 0
M  V30 46 H -0.353515 2.678493 -0.951413 0
M  V30 47 H -1.225685 3.779460 0.075502 0
M  V30 48 H -1.738417 3.215021 -2.687333 0
M  V30 49 H -2.652380 4.292095 -1.630608 0
M  V30 50 H -4.133571 2.502369 -2.614162 0
M  V30 51 H -2.252524 0.836390 -2.807550 0
M  V30 52 H -3.657350 0.124534 -2.028241 0
M  V30 53 H -2.612721 -0.170292 -0.043622 0
M  V30 54 H -0.184032 0.491609 -1.761076 0
M  V30 55 H -0.056841 0.651134 0.830773 0
M  V30 56 H 1.661440 -0.087030 1.994907 0
M  V30 57 H 4.290159 0.291019 -0.641635 0
M  V30 58 H 7.441501 0.330969 2.276898 0
M  V30 59 H 3.349203 -0.019558 3.555859 0
M  V30 60 H -0.104710 -0.969530 -3.485220 0
M  V30 61 H -0.398461 -3.235663 -4.424767 0
M  V30 62 H -1.936093 -5.956078 -1.194756 0
M  V30 63 H -2.500580 -5.819086 1.205431 0
M  V30 64 H -2.257883 -3.657474 2.406515 0
M  V30 65 H -1.469163 -1.679003 1.215248 0
M  V30 END ATOM
M  V30 BEGIN BOND
M  V30 1 2 1 2
M  V30 2 1 2 3
M  V30 3 1 3 4
M  V30 4 1 4 5
M  V30 5 1 5 6
M  V30 6 1 6 7
M  V30 7 1 7 8
M  V30 8 1 8 9
M  V30 9 1 9 10
M  V30 10 1 10 11
M  V30 11 1 11 12
M  V30 12 1 12 13
M  V30 13 2 13 14
M  V30 14 1 13 15
M  V30 15 1 15 16
M  V30 16 2 16 17
M  V30 17 1 17 18
M  V30 18 1 18 19
M  V30 19 1 19 20
M  V30 20 1 19 21
M  V30 21 1 19 22
M  V30 22 2 18 23
M  V30 23 1 23 24
M  V30 24 1 24 25
M  V30 25 1 25 26
M  V30 26 1 25 27
M  V30 27 1 25 28
M  V30 28 2 24 29
M  V30 29 1 11 30
M  V30 30 2 30 31
M  V30 31 1 31 32
M  V30 32 2 32 33
M  V30 33 1 33 34
M  V30 34 2 34 35
M  V30 35 1 35 36
M  V30 36 2 36 37
M  V30 37 1 37 38
M  V30 38 2 38 39
M  V30 39 1 8 3
M  V30 40 1 29 16
M  V30 41 1 39 30
M  V30 42 1 10 5
M  V30 43 1 39 34
M  V30 44 1 1 40
M  V30 45 1 1 41
M  V30 46 1 2 42
M  V30 47 1 3 43 CFG=1
M  V30 48 1 4 44
M  V30 49 1 4 45
M  V30 50 1 6 46
M  V30 51 1 6 47
M  V30 52 1 7 48
M  V30 53 1 7 49
M  V30 54 1 8 50 CFG=3
M  V30 55 1 9 51
M  V30 56 1 9 52
M  V30 57 1 10 53 CFG=1
M  V30 58 1 11 54 CFG=3
M  V30 59 1 12 55
M  V30 60 1 15 56
M  V30 61 1 17 57
M  V30 62 1 23 58
M  V30 63 1 29 59
M  V30 64 1 31 60
M  V30 65 1 32 61
M  V30 66 1 35 62
M  V30 67 1 36 63
M  V30 68 1 37 64
M  V30 69 1 38 65
M  V30 END BOND
M  V30 END CTAB
M  END
>  <catalyst_id>  (1) 
VNRLCKBQNVNWFW_SEMUBUJISA_NONE

>  <source_smiles>  (1) 
C=C[C@H]1CN2CC[C@H]1C[C@H]2[C@@H](NC(=O)Nc1cc(C(F)(F)F)cc(C(F)(F)F)c1)c1ccnc2ccccc12

>  <axial_configuration>  (1) 
none

>  <inchikey>  (1) 
VNRLCKBQNVNWFW-SEMUBUJISA-N

>  <build_source>  (1) 
smiles

>  <rdkit_version>  (1) 
2025.09.6

>  <random_seed>  (1) 
42

>  <generated_at>  (1) 
2026-05-19T12:40:23

$$$$
