catalyst294
     RDKit          3D

  0  0  0  0  0  0  0  0  0  0999 V3000
M  V30 BEGIN CTAB
M  V30 COUNTS 86 94 0 0 0
M  V30 BEGIN ATOM
M  V30 1 O -0.476126 2.998624 -0.767191 0
M  V30 2 P 0.027416 1.856910 0.060310 0
M  V30 3 O 0.885352 2.301969 1.344180 0
M  V30 4 O 1.021260 0.832755 -0.703283 0
M  V30 5 C 1.406490 -0.309005 -0.035327 0
M  V30 6 C 2.753405 -0.402403 0.373025 0
M  V30 7 C 3.813657 0.692991 0.076969 0
M  V30 8 O 3.137582 1.985248 0.102413 0
M  V30 9 C 4.458307 0.574181 -1.327965 0
M  V30 10 C 5.311801 1.602720 -1.790099 0
M  V30 11 C 5.908263 1.541838 -3.050776 0
M  V30 12 C 5.666592 0.452561 -3.880692 0
M  V30 13 C 4.832532 -0.574898 -3.449282 0
M  V30 14 C 4.235024 -0.517121 -2.186262 0
M  V30 15 C 4.854081 0.790808 1.222644 0
M  V30 16 C 6.150158 0.247651 1.110712 0
M  V30 17 C 7.058649 0.320448 2.170379 0
M  V30 18 C 6.688906 0.923931 3.368633 0
M  V30 19 C 5.408771 1.449620 3.512632 0
M  V30 20 C 4.499779 1.379338 2.454320 0
M  V30 21 C 3.127926 -1.594966 1.012687 0
M  V30 22 C 2.210049 -2.613838 1.295239 0
M  V30 23 C 2.641754 -3.749653 2.002087 0
M  V30 24 C 1.753853 -4.764019 2.349245 0
M  V30 25 C 0.417464 -4.647660 2.004151 0
M  V30 26 C -0.020523 -3.527058 1.293887 0
M  V30 27 C 0.858838 -2.491167 0.885398 0
M  V30 28 C 0.436988 -1.337839 0.137308 0
M  V30 29 C -0.885982 -1.195133 -0.441499 0
M  V30 30 C -1.671191 -0.043375 -0.150716 0
M  V30 31 C -2.989312 0.170953 -0.605574 0
M  V30 32 C -3.785473 1.476602 -0.337509 0
M  V30 33 O -3.223493 2.358873 -1.332885 0
M  V30 34 C -5.307206 1.359076 -0.627357 0
M  V30 35 C -6.121201 0.485558 0.124311 0
M  V30 36 C -7.491428 0.377308 -0.126445 0
M  V30 37 C -8.079204 1.140695 -1.130674 0
M  V30 38 C -7.298838 2.013154 -1.883762 0
M  V30 39 C -5.928271 2.122953 -1.634035 0
M  V30 40 C -3.624637 2.119793 1.060457 0
M  V30 41 C -3.616892 3.521480 1.205824 0
M  V30 42 C -3.502530 4.117725 2.463690 0
M  V30 43 C -3.412527 3.326904 3.605205 0
M  V30 44 C -3.447838 1.940299 3.491782 0
M  V30 45 C -3.563478 1.342646 2.234333 0
M  V30 46 C -3.508721 -0.815883 -1.458700 0
M  V30 47 C -2.786405 -1.959389 -1.823004 0
M  V30 48 C -3.374605 -2.888331 -2.699289 0
M  V30 49 C -2.676610 -4.009005 -3.139279 0
M  V30 50 C -1.371086 -4.204062 -2.721459 0
M  V30 51 C -0.777911 -3.287636 -1.848884 0
M  V30 52 C -1.469050 -2.156046 -1.340523 0
M  V30 53 O -1.106549 0.897948 0.677214 0
M  V30 54 H 1.792768 2.549919 1.057637 0
M  V30 55 H 3.107056 2.278921 -0.827910 0
M  V30 56 H 5.526371 2.462080 -1.154346 0
M  V30 57 H 6.562584 2.344225 -3.382519 0
M  V30 58 H 6.127858 0.402959 -4.863698 0
M  V30 59 H 4.642110 -1.426363 -4.098628 0
M  V30 60 H 3.591053 -1.344957 -1.898787 0
M  V30 61 H 6.472068 -0.248481 0.196945 0
M  V30 62 H 8.055517 -0.098948 2.059186 0
M  V30 63 H 7.395583 0.978859 4.192455 0
M  V30 64 H 5.112035 1.911701 4.450896 0
M  V30 65 H 3.499765 1.782348 2.603230 0
M  V30 66 H 4.161773 -1.735517 1.325849 0
M  V30 67 H 3.682357 -3.846760 2.307143 0
M  V30 68 H 2.103548 -5.630856 2.903268 0
M  V30 69 H -0.291709 -5.420673 2.288546 0
M  V30 70 H -1.084179 -3.468464 1.068730 0
M  V30 71 H -2.397037 2.736320 -0.973474 0
M  V30 72 H -5.690697 -0.126341 0.913219 0
M  V30 73 H -8.098891 -0.301735 0.466030 0
M  V30 74 H -9.145231 1.059238 -1.324250 0
M  V30 75 H -7.754178 2.614073 -2.666584 0
M  V30 76 H -5.344750 2.815409 -2.238061 0
M  V30 77 H -3.710623 4.165283 0.332540 0
M  V30 78 H -3.489919 5.201094 2.549466 0
M  V30 79 H -3.322029 3.791397 4.583225 0
M  V30 80 H -3.384373 1.320785 4.382441 0
M  V30 81 H -3.589451 0.256527 2.179953 0
M  V30 82 H -4.495920 -0.677928 -1.899443 0
M  V30 83 H -4.390379 -2.736084 -3.060982 0
M  V30 84 H -3.146632 -4.712826 -3.820512 0
M  V30 85 H -0.804517 -5.061005 -3.076019 0
M  V30 86 H 0.260257 -3.469273 -1.578345 0
M  V30 END ATOM
M  V30 BEGIN BOND
M  V30 1 2 1 2
M  V30 2 1 2 3
M  V30 3 1 2 4
M  V30 4 1 4 5
M  V30 5 2 5 6
M  V30 6 1 6 7
M  V30 7 1 7 8
M  V30 8 1 7 9
M  V30 9 2 9 10
M  V30 10 1 10 11
M  V30 11 2 11 12
M  V30 12 1 12 13
M  V30 13 2 13 14
M  V30 14 1 7 15
M  V30 15 2 15 16
M  V30 16 1 16 17
M  V30 17 2 17 18
M  V30 18 1 18 19
M  V30 19 2 19 20
M  V30 20 1 6 21
M  V30 21 2 21 22
M  V30 22 1 22 23
M  V30 23 2 23 24
M  V30 24 1 24 25
M  V30 25 2 25 26
M  V30 26 1 26 27
M  V30 27 2 27 28
M  V30 28 1 28 29
M  V30 29 2 29 30
M  V30 30 1 30 31
M  V30 31 1 31 32
M  V30 32 1 32 33
M  V30 33 1 32 34
M  V30 34 2 34 35
M  V30 35 1 35 36
M  V30 36 2 36 37
M  V30 37 1 37 38
M  V30 38 2 38 39
M  V30 39 1 32 40
M  V30 40 2 40 41
M  V30 41 1 41 42
M  V30 42 2 42 43
M  V30 43 1 43 44
M  V30 44 2 44 45
M  V30 45 2 31 46
M  V30 46 1 46 47
M  V30 47 2 47 48
M  V30 48 1 48 49
M  V30 49 2 49 50
M  V30 50 1 50 51
M  V30 51 2 51 52
M  V30 52 1 30 53
M  V30 53 1 53 2
M  V30 54 1 28 5
M  V30 55 1 52 29
M  V30 56 1 14 9
M  V30 57 1 20 15
M  V30 58 1 27 22
M  V30 59 1 39 34
M  V30 60 1 45 40
M  V30 61 1 52 47
M  V30 62 1 3 54
M  V30 63 1 8 55
M  V30 64 1 10 56
M  V30 65 1 11 57
M  V30 66 1 12 58
M  V30 67 1 13 59
M  V30 68 1 14 60
M  V30 69 1 16 61
M  V30 70 1 17 62
M  V30 71 1 18 63
M  V30 72 1 19 64
M  V30 73 1 20 65
M  V30 74 1 21 66
M  V30 75 1 23 67
M  V30 76 1 24 68
M  V30 77 1 25 69
M  V30 78 1 26 70
M  V30 79 1 33 71
M  V30 80 1 35 72
M  V30 81 1 36 73
M  V30 82 1 37 74
M  V30 83 1 38 75
M  V30 84 1 39 76
M  V30 85 1 41 77
M  V30 86 1 42 78
M  V30 87 1 43 79
M  V30 88 1 44 80
M  V30 89 1 45 81
M  V30 90 1 46 82
M  V30 91 1 48 83
M  V30 92 1 49 84
M  V30 93 1 50 85
M  V30 94 1 51 86
M  V30 END BOND
M  V30 END CTAB
M  END
>  <catalyst_id>  (1) 
RBZUKWJDYDRNEE_UHFFFAOYSA_R

>  <source_smiles>  (1) 
O=P1(O)Oc2c(C(O)(c3ccccc3)c3ccccc3)cc3ccccc3c2-c2c(c(C(O)(c3ccccc3)c3ccccc3)cc3ccccc23)O1

>  <axial_configuration>  (1) 
R

>  <inchikey>  (1) 
RBZUKWJDYDRNEE-UHFFFAOYSA-N

>  <build_source>  (1) 
smiles+axial_bridged

>  <final_biaryl_angle_deg>  (1) 
126.32

>  <n_valid_conformers>  (1) 
13

>  <rdkit_version>  (1) 
2025.09.6

>  <random_seed>  (1) 
42

>  <generated_at>  (1) 
2026-05-19T12:33:52

$$$$
