catalyst121
     RDKit          3D

  0  0  0  0  0  0  0  0  0  0999 V3000
M  V30 BEGIN CTAB
M  V30 COUNTS 34 35 0 0 0
M  V30 BEGIN ATOM
M  V30 1 C 2.770133 1.299295 -4.003615 0
M  V30 2 C 2.448228 0.591010 -2.720292 0
M  V30 3 C 1.969874 -0.726306 -2.741361 0
M  V30 4 C 1.702249 -1.401523 -1.549416 0
M  V30 5 C 1.911665 -0.755449 -0.329597 0
M  V30 6 S 1.600490 -1.618097 1.189719 0
M  V30 7 O 1.635879 -3.041949 0.941516 0
M  V30 8 O 2.447020 -1.024657 2.205451 0
M  V30 9 N 0.062831 -1.162675 1.561953 0
M  V30 10 C -1.103176 -1.465068 0.846711 0
M  V30 11 O -1.115597 -2.107553 -0.194027 0
M  V30 12 C -2.375582 -0.858284 1.462028 0 CFG=2
M  V30 13 C -2.900293 0.293739 0.606372 0
M  V30 14 C -2.802886 1.518825 1.500225 0
M  V30 15 C -2.903545 0.941328 2.895172 0
M  V30 16 N -2.088617 -0.270279 2.804684 0
M  V30 17 C 2.414948 0.547743 -0.292424 0
M  V30 18 C 2.682594 1.216819 -1.488173 0
M  V30 19 H 2.109080 0.965354 -4.810270 0
M  V30 20 H 2.632295 2.380512 -3.897928 0
M  V30 21 H 3.807372 1.100774 -4.290344 0
M  V30 22 H 1.803472 -1.236619 -3.687950 0
M  V30 23 H 1.325045 -2.422226 -1.579054 0
M  V30 24 H -0.051837 -0.582186 2.393785 0
M  V30 25 H -3.125367 -1.652673 1.551861 0
M  V30 26 H -3.952040 0.112406 0.353689 0
M  V30 27 H -2.349761 0.444380 -0.327954 0
M  V30 28 H -3.590091 2.248551 1.289650 0
M  V30 29 H -1.832532 2.010425 1.357475 0
M  V30 30 H -3.941353 0.687341 3.140463 0
M  V30 31 H -2.519603 1.627164 3.655168 0
M  V30 32 H -2.361072 -0.931896 3.534579 0
M  V30 33 H 2.608762 1.043123 0.656096 0
M  V30 34 H 3.081418 2.228650 -1.454256 0
M  V30 END ATOM
M  V30 BEGIN BOND
M  V30 1 1 1 2
M  V30 2 2 2 3
M  V30 3 1 3 4
M  V30 4 2 4 5
M  V30 5 1 5 6
M  V30 6 2 6 7
M  V30 7 2 6 8
M  V30 8 1 6 9
M  V30 9 1 9 10
M  V30 10 2 10 11
M  V30 11 1 10 12
M  V30 12 1 12 13
M  V30 13 1 13 14
M  V30 14 1 14 15
M  V30 15 1 15 16
M  V30 16 1 5 17
M  V30 17 2 17 18
M  V30 18 1 18 2
M  V30 19 1 16 12
M  V30 20 1 1 19
M  V30 21 1 1 20
M  V30 22 1 1 21
M  V30 23 1 3 22
M  V30 24 1 4 23
M  V30 25 1 9 24
M  V30 26 1 12 25 CFG=1
M  V30 27 1 13 26
M  V30 28 1 13 27
M  V30 29 1 14 28
M  V30 30 1 14 29
M  V30 31 1 15 30
M  V30 32 1 15 31
M  V30 33 1 16 32
M  V30 34 1 17 33
M  V30 35 1 18 34
M  V30 END BOND
M  V30 END CTAB
M  END
>  <catalyst_id>  (1) 
IRZNSHIJULMORY_NSHDSACASA_NONE

>  <source_smiles>  (1) 
Cc1ccc(S(=O)(=O)NC(=O)[C@@H]2CCCN2)cc1

>  <axial_configuration>  (1) 
none

>  <inchikey>  (1) 
IRZNSHIJULMORY-NSHDSACASA-N

>  <build_source>  (1) 
smiles

>  <rdkit_version>  (1) 
2025.09.6

>  <random_seed>  (1) 
42

>  <generated_at>  (1) 
2026-05-19T12:29:57

$$$$
