catalyst214
     RDKit          3D

  0  0  0  0  0  0  0  0  0  0999 V3000
M  V30 BEGIN CTAB
M  V30 COUNTS 78 84 0 0 0
M  V30 BEGIN ATOM
M  V30 1 C 2.581984 -3.653953 2.347790 0
M  V30 2 C 2.620634 -2.231669 1.810603 0
M  V30 3 C 2.564603 -1.152801 2.907136 0 CFG=1
M  V30 4 C 2.628204 0.260898 2.277419 0
M  V30 5 N 1.583984 1.156539 2.822057 0
M  V30 6 C 1.735823 1.215281 4.292164 0
M  V30 7 C 1.519187 -0.161088 4.936783 0
M  V30 8 C 1.326243 -1.219085 3.834910 0 CFG=1
M  V30 9 C 0.070416 -0.826282 3.039963 0
M  V30 10 C 0.223656 0.623412 2.500886 0 CFG=2
M  V30 11 C -0.191389 0.698664 0.988211 0 CFG=1
M  V30 12 O -1.603203 0.394920 0.917111 0
M  V30 13 C -1.933051 -0.245651 -0.258324 0
M  V30 14 N -1.310500 -1.418881 -0.485641 0
M  V30 15 C -1.641296 -2.067301 -1.613611 0
M  V30 16 C -0.960382 -3.344895 -1.900951 0
M  V30 17 C -1.124925 -4.005355 -3.134000 0
M  V30 18 C -0.476921 -5.214164 -3.408819 0
M  V30 19 C 0.352556 -5.793279 -2.453461 0
M  V30 20 C 0.533114 -5.166427 -1.224647 0
M  V30 21 C -0.116782 -3.958025 -0.953704 0
M  V30 22 N -2.549013 -1.623593 -2.492264 0
M  V30 23 C -3.153042 -0.456993 -2.189293 0
M  V30 24 Cl -4.323551 -0.013507 -3.378320 0
M  V30 25 C -2.907698 0.309200 -1.066755 0
M  V30 26 C -3.574003 1.578286 -0.761003 0
M  V30 27 C -4.532005 1.659672 0.262395 0
M  V30 28 C -5.154228 2.873146 0.565080 0
M  V30 29 C -4.824842 4.023218 -0.148348 0
M  V30 30 C -3.874929 3.961445 -1.164646 0
M  V30 31 C -3.255580 2.747775 -1.470232 0
M  V30 32 C 0.018873 2.063230 0.330807 0
M  V30 33 C -0.455174 3.210364 0.982984 0
M  V30 34 C -0.308696 4.438518 0.372678 0
M  V30 35 N 0.257911 4.611124 -0.835523 0
M  V30 36 C 0.703948 3.524727 -1.481188 0
M  V30 37 C 1.267106 3.718095 -2.733917 0
M  V30 38 C 1.745428 2.658595 -3.509874 0
M  V30 39 C 1.662102 1.363755 -3.023752 0
M  V30 40 O 2.080278 0.231573 -3.664111 0
M  V30 41 C 2.610475 0.391075 -4.974108 0
M  V30 42 C 1.104381 1.149734 -1.760031 0
M  V30 43 C 0.612928 2.212910 -0.957842 0
M  V30 44 H 1.608416 -3.889662 2.787125 0
M  V30 45 H 3.355110 -3.810254 3.106433 0
M  V30 46 H 2.756335 -4.366196 1.534821 0
M  V30 47 H 3.552205 -2.104415 1.244459 0
M  V30 48 H 1.806053 -2.098429 1.090935 0
M  V30 49 H 3.457374 -1.283489 3.535479 0
M  V30 50 H 2.557381 0.223745 1.184447 0
M  V30 51 H 3.615036 0.699498 2.476250 0
M  V30 52 H 2.731913 1.598297 4.547658 0
M  V30 53 H 1.028516 1.941343 4.711900 0
M  V30 54 H 2.380647 -0.419921 5.563680 0
M  V30 55 H 0.638799 -0.135485 5.590194 0
M  V30 56 H 1.207029 -2.207117 4.289193 0
M  V30 57 H -0.100534 -1.547963 2.234545 0
M  V30 58 H -0.808534 -0.877007 3.695181 0
M  V30 59 H -0.505753 1.233803 3.052834 0
M  V30 60 H 0.404567 -0.065637 0.484067 0
M  V30 61 H -1.767159 -3.574453 -3.901339 0
M  V30 62 H -0.623055 -5.699538 -4.370422 0
M  V30 63 H 0.856220 -6.732494 -2.666241 0
M  V30 64 H 1.177738 -5.615376 -0.473484 0
M  V30 65 H 0.037337 -3.493585 0.018573 0
M  V30 66 H -4.799490 0.774071 0.835739 0
M  V30 67 H -5.895055 2.919878 1.359076 0
M  V30 68 H -5.306876 4.968261 0.087924 0
M  V30 69 H -3.607349 4.858207 -1.718215 0
M  V30 70 H -2.506548 2.728679 -2.260358 0
M  V30 71 H -0.946338 3.156289 1.948195 0
M  V30 72 H -0.664182 5.345608 0.852440 0
M  V30 73 H 1.333351 4.731960 -3.123646 0
M  V30 74 H 2.171989 2.887105 -4.480283 0
M  V30 75 H 1.864894 0.818088 -5.653034 0
M  V30 76 H 2.874382 -0.601734 -5.351020 0
M  V30 77 H 3.523513 0.995278 -4.958452 0
M  V30 78 H 1.059445 0.119437 -1.419263 0
M  V30 END ATOM
M  V30 BEGIN BOND
M  V30 1 1 1 2
M  V30 2 1 2 3
M  V30 3 1 3 4
M  V30 4 1 4 5
M  V30 5 1 5 6
M  V30 6 1 6 7
M  V30 7 1 7 8
M  V30 8 1 8 9
M  V30 9 1 9 10
M  V30 10 1 10 11
M  V30 11 1 11 12
M  V30 12 1 12 13
M  V30 13 2 13 14
M  V30 14 1 14 15
M  V30 15 1 15 16
M  V30 16 2 16 17
M  V30 17 1 17 18
M  V30 18 2 18 19
M  V30 19 1 19 20
M  V30 20 2 20 21
M  V30 21 2 15 22
M  V30 22 1 22 23
M  V30 23 1 23 24
M  V30 24 2 23 25
M  V30 25 1 25 26
M  V30 26 2 26 27
M  V30 27 1 27 28
M  V30 28 2 28 29
M  V30 29 1 29 30
M  V30 30 2 30 31
M  V30 31 1 11 32
M  V30 32 2 32 33
M  V30 33 1 33 34
M  V30 34 2 34 35
M  V30 35 1 35 36
M  V30 36 2 36 37
M  V30 37 1 37 38
M  V30 38 2 38 39
M  V30 39 1 39 40
M  V30 40 1 40 41
M  V30 41 1 39 42
M  V30 42 2 42 43
M  V30 43 1 8 3
M  V30 44 1 25 13
M  V30 45 1 31 26
M  V30 46 1 43 32
M  V30 47 1 10 5
M  V30 48 1 21 16
M  V30 49 1 43 36
M  V30 50 1 1 44
M  V30 51 1 1 45
M  V30 52 1 1 46
M  V30 53 1 2 47
M  V30 54 1 2 48
M  V30 55 1 3 49 CFG=1
M  V30 56 1 4 50
M  V30 57 1 4 51
M  V30 58 1 6 52
M  V30 59 1 6 53
M  V30 60 1 7 54
M  V30 61 1 7 55
M  V30 62 1 8 56 CFG=1
M  V30 63 1 9 57
M  V30 64 1 9 58
M  V30 65 1 10 59 CFG=1
M  V30 66 1 11 60 CFG=3
M  V30 67 1 17 61
M  V30 68 1 18 62
M  V30 69 1 19 63
M  V30 70 1 20 64
M  V30 71 1 21 65
M  V30 72 1 27 66
M  V30 73 1 28 67
M  V30 74 1 29 68
M  V30 75 1 30 69
M  V30 76 1 31 70
M  V30 77 1 33 71
M  V30 78 1 34 72
M  V30 79 1 37 73
M  V30 80 1 38 74
M  V30 81 1 41 75
M  V30 82 1 41 76
M  V30 83 1 41 77
M  V30 84 1 42 78
M  V30 END BOND
M  V30 END CTAB
M  END
>  <catalyst_id>  (1) 
NIXRZHUQCQMVGL_TYVOWPKXSA_NONE

>  <source_smiles>  (1) 
CC[C@H]1CN2CC[C@H]1C[C@@H]2[C@@H](Oc1nc(-c2ccccc2)nc(Cl)c1-c1ccccc1)c1ccnc2ccc(OC)cc12

>  <axial_configuration>  (1) 
none

>  <inchikey>  (1) 
NIXRZHUQCQMVGL-TYVOWPKXSA-N

>  <build_source>  (1) 
smiles

>  <final_biaryl_angle_deg>  (1) 
-172.10

>  <rdkit_version>  (1) 
2025.09.6

>  <random_seed>  (1) 
42

>  <generated_at>  (1) 
2026-05-19T12:36:58

$$$$
