catalyst317
     RDKit          3D

  0  0  0  0  0  0  0  0  0  0999 V3000
M  V30 BEGIN CTAB
M  V30 COUNTS 21 22 0 0 0
M  V30 BEGIN ATOM
M  V30 1 O -3.358716 -0.358880 -0.008946 0
M  V30 2 C -2.293506 -0.853173 0.327658 0
M  V30 3 O -2.143590 -2.193650 0.279937 0
M  V30 4 C -1.101140 -0.129653 0.889170 0 CFG=2
M  V30 5 C -1.293881 1.398809 0.772761 0
M  V30 6 N 0.039416 2.015682 0.625137 0
M  V30 7 C 0.784351 0.978559 0.010252 0
M  V30 8 C 2.032765 1.123050 -0.567176 0
M  V30 9 C 2.676138 -0.016348 -1.055650 0
M  V30 10 C 2.078881 -1.279662 -0.932541 0
M  V30 11 C 0.832886 -1.420096 -0.316908 0
M  V30 12 C 0.192229 -0.280115 0.144123 0
M  V30 13 H -2.996508 -2.517400 -0.079298 0
M  V30 14 H -0.964995 -0.411439 1.939783 0
M  V30 15 H -1.900996 1.676544 -0.099567 0
M  V30 16 H -1.797566 1.799923 1.659251 0
M  V30 17 H 0.056745 2.862910 0.061992 0
M  V30 18 H 2.508986 2.095127 -0.631196 0
M  V30 19 H 3.655478 0.074064 -1.518815 0
M  V30 20 H 2.599810 -2.159144 -1.303667 0
M  V30 21 H 0.393214 -2.405107 -0.196300 0
M  V30 END ATOM
M  V30 BEGIN BOND
M  V30 1 2 1 2
M  V30 2 1 2 3
M  V30 3 1 2 4
M  V30 4 1 4 5
M  V30 5 1 5 6
M  V30 6 1 6 7
M  V30 7 2 7 8
M  V30 8 1 8 9
M  V30 9 2 9 10
M  V30 10 1 10 11
M  V30 11 2 11 12
M  V30 12 1 12 4
M  V30 13 1 12 7
M  V30 14 1 3 13
M  V30 15 1 4 14 CFG=1
M  V30 16 1 5 15
M  V30 17 1 5 16
M  V30 18 1 6 17
M  V30 19 1 8 18
M  V30 20 1 9 19
M  V30 21 1 10 20
M  V30 22 1 11 21
M  V30 END BOND
M  V30 END CTAB
M  END
>  <catalyst_id>  (1) 
RXHBTEVUVWXEBO_SSDOTTSWSA_NONE

>  <source_smiles>  (1) 
O=C(O)[C@@H]1CNc2ccccc21

>  <axial_configuration>  (1) 
none

>  <inchikey>  (1) 
RXHBTEVUVWXEBO-SSDOTTSWSA-N

>  <build_source>  (1) 
smiles

>  <rdkit_version>  (1) 
2025.09.6

>  <random_seed>  (1) 
42

>  <generated_at>  (1) 
2026-05-19T12:31:43

$$$$
