catalyst50
     RDKit          3D

  0  0  0  0  0  0  0  0  0  0999 V3000
M  V30 BEGIN CTAB
M  V30 COUNTS 15 15 0 0 0
M  V30 BEGIN ATOM
M  V30 1 O 2.590993 -0.716607 0.102348 0
M  V30 2 C 1.703840 0.090983 0.328298 0
M  V30 3 O 2.016387 1.361513 0.674291 0
M  V30 4 C 0.206582 -0.179968 0.348864 0 CFG=2
M  V30 5 C -0.133864 -1.436607 -0.441334 0
M  V30 6 S -1.914359 -1.277350 -0.748076 0
M  V30 7 C -1.930077 0.494521 -0.382776 0
M  V30 8 N -0.544993 0.927739 -0.286801 0
M  V30 9 H 2.993589 1.390046 0.605657 0
M  V30 10 H -0.090276 -0.287016 1.401044 0
M  V30 11 H 0.393335 -1.487186 -1.400048 0
M  V30 12 H 0.078985 -2.347637 0.125599 0
M  V30 13 H -2.455633 1.041610 -1.169918 0
M  V30 14 H -2.455674 0.654975 0.564149 0
M  V30 15 H -0.458836 1.770983 0.278703 0
M  V30 END ATOM
M  V30 BEGIN BOND
M  V30 1 2 1 2
M  V30 2 1 2 3
M  V30 3 1 2 4
M  V30 4 1 4 5
M  V30 5 1 5 6
M  V30 6 1 6 7
M  V30 7 1 7 8
M  V30 8 1 8 4
M  V30 9 1 3 9
M  V30 10 1 4 10 CFG=1
M  V30 11 1 5 11
M  V30 12 1 5 12
M  V30 13 1 7 13
M  V30 14 1 7 14
M  V30 15 1 8 15
M  V30 END BOND
M  V30 END CTAB
M  END
>  <catalyst_id>  (1) 
DZLNHFMRPBPULJ_VKHMYHEASA_NONE

>  <source_smiles>  (1) 
O=C(O)[C@@H]1CSCN1

>  <axial_configuration>  (1) 
none

>  <inchikey>  (1) 
DZLNHFMRPBPULJ-VKHMYHEASA-N

>  <build_source>  (1) 
smiles

>  <rdkit_version>  (1) 
2025.09.6

>  <random_seed>  (1) 
42

>  <generated_at>  (1) 
2026-05-19T12:29:44

$$$$
