catalyst132
     RDKit          3D

  0  0  0  0  0  0  0  0  0  0999 V3000
M  V30 BEGIN CTAB
M  V30 COUNTS 102 104 0 0 0
M  V30 BEGIN ATOM
M  V30 1 C 0.233187 2.412012 -2.421338 0
M  V30 2 C -0.064589 1.183793 -3.277711 0
M  V30 3 C -1.060601 1.553226 -4.376368 0
M  V30 4 N -0.608071 0.075918 -2.452127 0 CHG=1
M  V30 5 C -0.035559 -0.498008 -1.369471 0
M  V30 6 N -0.810458 -1.108968 -0.431677 0
M  V30 7 C -2.284452 -1.150540 -0.390538 0
M  V30 8 C -2.968795 0.231953 -0.256692 0 CFG=2
M  V30 9 C -2.586078 0.978800 1.044319 0
M  V30 10 C -2.978856 0.302518 2.335870 0
M  V30 11 C -2.117470 -0.604528 2.968631 0
M  V30 12 C -2.499728 -1.238589 4.152270 0
M  V30 13 C -3.740114 -0.963499 4.723039 0
M  V30 14 C -4.593438 -0.043993 4.119325 0
M  V30 15 C -4.211795 0.589643 2.936519 0
M  V30 16 N -4.428340 0.116615 -0.426053 0
M  V30 17 C -5.099082 -0.081232 -1.603519 0
M  V30 18 S -4.386349 -0.172694 -3.115376 0
M  V30 19 N -6.446742 -0.281524 -1.529351 0
M  V30 20 C -7.395297 0.068137 -0.548234 0
M  V30 21 C -7.170948 1.028657 0.438609 0
M  V30 22 C -8.167588 1.348208 1.378092 0
M  V30 23 C -7.904376 2.364875 2.464608 0
M  V30 24 F -7.613773 1.770658 3.654003 0
M  V30 25 F -6.845211 3.176061 2.188552 0
M  V30 26 F -8.961806 3.186293 2.694372 0
M  V30 27 C -9.405997 0.692003 1.309080 0
M  V30 28 C -9.665898 -0.244061 0.297844 0
M  V30 29 C -10.998108 -0.954638 0.222564 0
M  V30 30 F -12.017473 -0.236658 0.765554 0
M  V30 31 F -11.372345 -1.235658 -1.055470 0
M  V30 32 F -10.977424 -2.144741 0.880421 0
M  V30 33 C -8.651298 -0.543585 -0.626897 0
M  V30 34 N 1.292427 -0.526312 -1.135205 0
M  V30 35 C 2.406200 -0.349820 -2.076297 0
M  V30 36 C 3.703204 -1.078708 -1.633140 0 CFG=2
M  V30 37 C 3.567022 -2.615144 -1.686773 0
M  V30 38 C 4.893498 -3.321138 -1.527594 0
M  V30 39 C 5.806564 -3.365324 -2.591233 0
M  V30 40 C 7.042516 -3.994929 -2.437218 0
M  V30 41 C 7.377960 -4.586792 -1.221766 0
M  V30 42 C 6.476959 -4.553189 -0.160034 0
M  V30 43 C 5.240082 -3.924655 -0.311212 0
M  V30 44 N 4.293389 -0.558109 -0.375796 0
M  V30 45 C 3.918093 -0.622734 0.933682 0
M  V30 46 S 2.536774 -1.343197 1.542996 0
M  V30 47 N 4.779025 -0.069754 1.841834 0
M  V30 48 C 5.804240 0.889527 1.699128 0
M  V30 49 C 6.698034 1.033270 2.766080 0
M  V30 50 C 7.737448 1.978774 2.723664 0
M  V30 51 C 8.714155 2.088970 3.872831 0
M  V30 52 F 9.256529 3.330385 3.992527 0
M  V30 53 F 9.757063 1.227036 3.740855 0
M  V30 54 F 8.141816 1.809981 5.076005 0
M  V30 55 C 7.872680 2.788956 1.586582 0
M  V30 56 C 6.973137 2.676556 0.516716 0
M  V30 57 C 7.078196 3.584633 -0.686557 0
M  V30 58 F 6.691455 2.965263 -1.838231 0
M  V30 59 F 8.338164 4.041716 -0.910253 0
M  V30 60 F 6.284257 4.682583 -0.571010 0
M  V30 61 C 5.932457 1.733418 0.594074 0
M  V30 62 Cl 0.000000 0.000000 0.000000 0 CHG=-1
M  V30 63 H 0.652255 3.220016 -3.029649 0
M  V30 64 H 0.943403 2.189474 -1.620947 0
M  V30 65 H -0.680546 2.782155 -1.942987 0
M  V30 66 H 0.836281 0.829381 -3.782161 0
M  V30 67 H -1.990709 1.943365 -3.951364 0
M  V30 68 H -0.643904 2.316795 -5.041286 0
M  V30 69 H -1.310752 0.674749 -4.980267 0
M  V30 70 H -1.544912 -0.238816 -2.688010 0
M  V30 71 H -0.323369 -1.637766 0.284154 0
M  V30 72 H -2.568484 -1.799504 0.445186 0
M  V30 73 H -2.609145 -1.693662 -1.282833 0
M  V30 74 H -2.617819 0.874610 -1.070469 0
M  V30 75 H -3.040147 1.979077 1.024206 0
M  V30 76 H -1.502464 1.156088 1.056013 0
M  V30 77 H -1.133192 -0.816439 2.562203 0
M  V30 78 H -1.826208 -1.938621 4.641380 0
M  V30 79 H -4.034381 -1.450035 5.650278 0
M  V30 80 H -5.550394 0.192066 4.580639 0
M  V30 81 H -4.877790 1.331205 2.504021 0
M  V30 82 H -4.929686 -0.226851 0.387707 0
M  V30 83 H -6.835011 -0.677388 -2.382206 0
M  V30 84 H -6.239653 1.589120 0.462835 0
M  V30 85 H -10.182198 0.926175 2.040942 0
M  V30 86 H -8.852503 -1.281346 -1.404034 0
M  V30 87 H 1.569763 -0.814558 -0.201475 0
M  V30 88 H 2.618009 0.720276 -2.151684 0
M  V30 89 H 2.105993 -0.745544 -3.051297 0
M  V30 90 H 4.448063 -0.796530 -2.391107 0
M  V30 91 H 3.140772 -2.912197 -2.654373 0
M  V30 92 H 2.858812 -2.981717 -0.936958 0
M  V30 93 H 5.565230 -2.916898 -3.552296 0
M  V30 94 H 7.744632 -4.029808 -3.267127 0
M  V30 95 H 8.339552 -5.080997 -1.104175 0
M  V30 96 H 6.738033 -5.022876 0.785421 0
M  V30 97 H 4.552382 -3.916830 0.530844 0
M  V30 98 H 5.306297 -0.502262 -0.446082 0
M  V30 99 H 4.601897 -0.373350 2.796351 0
M  V30 100 H 6.607404 0.395684 3.645882 0
M  V30 101 H 8.680269 3.522825 1.540068 0
M  V30 102 H 5.205746 1.713220 -0.214075 0
M  V30 END ATOM
M  V30 BEGIN BOND
M  V30 1 1 1 2
M  V30 2 1 2 3
M  V30 3 1 2 4
M  V30 4 2 4 5
M  V30 5 1 5 6
M  V30 6 1 6 7
M  V30 7 1 7 8
M  V30 8 1 8 9
M  V30 9 1 9 10
M  V30 10 2 10 11
M  V30 11 1 11 12
M  V30 12 2 12 13
M  V30 13 1 13 14
M  V30 14 2 14 15
M  V30 15 1 8 16
M  V30 16 1 16 17
M  V30 17 2 17 18
M  V30 18 1 17 19
M  V30 19 1 19 20
M  V30 20 2 20 21
M  V30 21 1 21 22
M  V30 22 1 22 23
M  V30 23 1 23 24
M  V30 24 1 23 25
M  V30 25 1 23 26
M  V30 26 2 22 27
M  V30 27 1 27 28
M  V30 28 1 28 29
M  V30 29 1 29 30
M  V30 30 1 29 31
M  V30 31 1 29 32
M  V30 32 2 28 33
M  V30 33 1 5 34
M  V30 34 1 34 35
M  V30 35 1 35 36
M  V30 36 1 36 37
M  V30 37 1 37 38
M  V30 38 2 38 39
M  V30 39 1 39 40
M  V30 40 2 40 41
M  V30 41 1 41 42
M  V30 42 2 42 43
M  V30 43 1 36 44
M  V30 44 1 44 45
M  V30 45 2 45 46
M  V30 46 1 45 47
M  V30 47 1 47 48
M  V30 48 2 48 49
M  V30 49 1 49 50
M  V30 50 1 50 51
M  V30 51 1 51 52
M  V30 52 1 51 53
M  V30 53 1 51 54
M  V30 54 2 50 55
M  V30 55 1 55 56
M  V30 56 1 56 57
M  V30 57 1 57 58
M  V30 58 1 57 59
M  V30 59 1 57 60
M  V30 60 2 56 61
M  V30 61 1 15 10
M  V30 62 1 33 20
M  V30 63 1 43 38
M  V30 64 1 61 48
M  V30 65 1 1 63
M  V30 66 1 1 64
M  V30 67 1 1 65
M  V30 68 1 2 66
M  V30 69 1 3 67
M  V30 70 1 3 68
M  V30 71 1 3 69
M  V30 72 1 4 70
M  V30 73 1 6 71
M  V30 74 1 7 72
M  V30 75 1 7 73
M  V30 76 1 8 74 CFG=3
M  V30 77 1 9 75
M  V30 78 1 9 76
M  V30 79 1 11 77
M  V30 80 1 12 78
M  V30 81 1 13 79
M  V30 82 1 14 80
M  V30 83 1 15 81
M  V30 84 1 16 82
M  V30 85 1 19 83
M  V30 86 1 21 84
M  V30 87 1 27 85
M  V30 88 1 33 86
M  V30 89 1 34 87
M  V30 90 1 35 88
M  V30 91 1 35 89
M  V30 92 1 36 90 CFG=3
M  V30 93 1 37 91
M  V30 94 1 37 92
M  V30 95 1 39 93
M  V30 96 1 40 94
M  V30 97 1 41 95
M  V30 98 1 42 96
M  V30 99 1 43 97
M  V30 100 1 44 98
M  V30 101 1 47 99
M  V30 102 1 49 100
M  V30 103 1 55 101
M  V30 104 1 61 102
M  V30 END BOND
M  V30 END CTAB
M  END
>  <catalyst_id>  (1) 
JLUWMUPXTKIOFP_MLGYITDRSA_NONE

>  <source_smiles>  (1) 
CC(C)[NH+]=C(NC[C@H](Cc1ccccc1)NC(=S)Nc1cc(C(F)(F)F)cc(C(F)(F)F)c1)NC[C@H](Cc1ccccc1)NC(=S)Nc1cc(C(F)(F)F)cc(C(F)(F)F)c1.[Cl-]

>  <axial_configuration>  (1) 
none

>  <inchikey>  (1) 
JLUWMUPXTKIOFP-MLGYITDRSA-N

>  <build_source>  (1) 
smiles

>  <rdkit_version>  (1) 
2025.09.6

>  <random_seed>  (1) 
42

>  <generated_at>  (1) 
2026-05-19T12:31:55

$$$$
