catalyst365
     RDKit          3D

  0  0  0  0  0  0  0  0  0  0999 V3000
M  V30 BEGIN CTAB
M  V30 COUNTS 18 18 0 0 0
M  V30 BEGIN ATOM
M  V30 1 N 2.740849 0.099908 0.018420 0
M  V30 2 C 1.682521 -0.743480 0.227371 0
M  V30 3 O 1.844717 -1.953706 0.322359 0
M  V30 4 C 0.337553 -0.018636 0.377891 0 CFG=2
M  V30 5 C -0.885569 -0.922386 0.255268 0
M  V30 6 C -1.824802 -0.191939 -0.695115 0
M  V30 7 C -1.264076 1.213975 -0.775405 0
M  V30 8 N 0.187498 1.012637 -0.690380 0
M  V30 9 H 3.640468 -0.311004 -0.186982 0
M  V30 10 H 2.546452 1.049453 -0.280829 0
M  V30 11 H 0.340405 0.479070 1.355964 0
M  V30 12 H -1.361486 -1.042888 1.235336 0
M  V30 13 H -0.661064 -1.922441 -0.129593 0
M  V30 14 H -1.794600 -0.669395 -1.682215 0
M  V30 15 H -2.861172 -0.206993 -0.344724 0
M  V30 16 H -1.546534 1.719096 -1.703703 0
M  V30 17 H -1.606891 1.826352 0.066554 0
M  V30 18 H 0.485732 0.582377 -1.570158 0
M  V30 END ATOM
M  V30 BEGIN BOND
M  V30 1 1 1 2
M  V30 2 2 2 3
M  V30 3 1 2 4
M  V30 4 1 4 5
M  V30 5 1 5 6
M  V30 6 1 6 7
M  V30 7 1 7 8
M  V30 8 1 8 4
M  V30 9 1 1 9
M  V30 10 1 1 10
M  V30 11 1 4 11 CFG=1
M  V30 12 1 5 12
M  V30 13 1 5 13
M  V30 14 1 6 14
M  V30 15 1 6 15
M  V30 16 1 7 16
M  V30 17 1 7 17
M  V30 18 1 8 18
M  V30 END BOND
M  V30 END CTAB
M  END
>  <catalyst_id>  (1) 
VLJNHYLEOZPXFW_BYPYZUCNSA_NONE

>  <source_smiles>  (1) 
NC(=O)[C@@H]1CCCN1

>  <axial_configuration>  (1) 
none

>  <inchikey>  (1) 
VLJNHYLEOZPXFW-BYPYZUCNSA-N

>  <build_source>  (1) 
smiles

>  <rdkit_version>  (1) 
2025.09.6

>  <random_seed>  (1) 
42

>  <generated_at>  (1) 
2026-05-19T12:33:24

$$$$
