catalyst271
     RDKit          3D

  0  0  0  0  0  0  0  0  0  0999 V3000
M  V30 BEGIN CTAB
M  V30 COUNTS 69 73 0 0 0
M  V30 BEGIN ATOM
M  V30 1 C -5.998877 -2.283773 -0.291549 0
M  V30 2 C -5.275095 -1.955470 -1.369690 0
M  V30 3 C -3.908462 -2.475409 -1.764141 0 CFG=1
M  V30 4 C -2.970950 -1.320175 -2.220784 0
M  V30 5 N -1.628935 -1.387547 -1.582288 0
M  V30 6 C -1.023893 -2.699524 -1.911217 0
M  V30 7 C -1.881307 -3.874419 -1.420945 0
M  V30 8 C -3.143197 -3.333697 -0.722695 0 CFG=1
M  V30 9 C -2.645395 -2.465856 0.448558 0
M  V30 10 C -1.839579 -1.263957 -0.095213 0 CFG=1
M  V30 11 C -0.492442 -1.039471 0.679465 0 CFG=1
M  V30 12 N 0.391248 -0.157137 -0.081678 0
M  V30 13 C 1.757238 -0.215843 0.098379 0
M  V30 14 O 2.292682 -0.961579 0.906549 0
M  V30 15 N 2.385168 0.674463 -0.745428 0
M  V30 16 C 3.767677 0.869200 -0.917981 0
M  V30 17 C 4.742980 0.037077 -0.365289 0
M  V30 18 C 6.110228 0.276417 -0.587649 0
M  V30 19 C 7.145350 -0.629585 0.036182 0
M  V30 20 F 7.379195 -0.330282 1.342565 0
M  V30 21 F 6.794406 -1.944479 0.003521 0
M  V30 22 F 8.356978 -0.556812 -0.584846 0
M  V30 23 C 6.491624 1.378745 -1.368051 0
M  V30 24 C 5.527582 2.228153 -1.930698 0
M  V30 25 C 5.938799 3.395135 -2.795305 0
M  V30 26 F 7.145162 3.920267 -2.445363 0
M  V30 27 F 5.054269 4.429914 -2.749822 0
M  V30 28 F 6.044555 3.050545 -4.107564 0
M  V30 29 C 4.168045 1.954268 -1.706729 0
M  V30 30 C -0.704157 -0.533845 2.104654 0
M  V30 31 C -0.377579 -1.411927 3.148788 0
M  V30 32 C -0.582034 -1.010545 4.452304 0
M  V30 33 N -1.089479 0.187681 4.793385 0
M  V30 34 C -1.382518 1.051420 3.810485 0
M  V30 35 C -1.880118 2.292474 4.180443 0
M  V30 36 C -2.210448 3.275398 3.242734 0
M  V30 37 C -2.037239 3.017762 1.891982 0
M  V30 38 O -2.306941 3.877221 0.863970 0
M  V30 39 C -2.802482 5.163309 1.216475 0
M  V30 40 C -1.540454 1.771321 1.501139 0
M  V30 41 C -1.208429 0.757975 2.437503 0
M  V30 42 H -5.657438 -2.993267 0.453934 0
M  V30 43 H -6.980009 -1.844277 -0.133361 0
M  V30 44 H -5.724658 -1.253879 -2.073440 0
M  V30 45 H -4.085671 -3.112772 -2.643043 0
M  V30 46 H -3.412202 -0.334555 -2.022164 0
M  V30 47 H -2.847907 -1.361719 -3.311304 0
M  V30 48 H -0.014156 -2.770803 -1.490917 0
M  V30 49 H -0.884089 -2.772011 -2.997361 0
M  V30 50 H -2.161168 -4.514083 -2.266448 0
M  V30 51 H -1.302410 -4.494784 -0.726102 0
M  V30 52 H -3.750784 -4.169633 -0.359898 0
M  V30 53 H -3.485276 -2.099397 1.048181 0
M  V30 54 H -2.035524 -3.087237 1.115439 0
M  V30 55 H -2.455218 -0.367883 0.049478 0
M  V30 56 H 0.023482 -2.008568 0.723101 0
M  V30 57 H 0.109899 -0.096788 -1.054048 0
M  V30 58 H 1.765301 1.355234 -1.160692 0
M  V30 59 H 4.465539 -0.820372 0.244538 0
M  V30 60 H 7.551121 1.576915 -1.540030 0
M  V30 61 H 3.419688 2.608867 -2.152218 0
M  V30 62 H 0.043936 -2.393381 2.953946 0
M  V30 63 H -0.335063 -1.663505 5.284397 0
M  V30 64 H -2.011466 2.505093 5.239556 0
M  V30 65 H -2.591630 4.222221 3.608764 0
M  V30 66 H -3.767078 5.087421 1.729176 0
M  V30 67 H -2.074781 5.714773 1.821002 0
M  V30 68 H -2.960689 5.725445 0.291064 0
M  V30 69 H -1.404921 1.605528 0.436314 0
M  V30 END ATOM
M  V30 BEGIN BOND
M  V30 1 2 1 2
M  V30 2 1 2 3
M  V30 3 1 3 4
M  V30 4 1 4 5
M  V30 5 1 5 6
M  V30 6 1 6 7
M  V30 7 1 7 8
M  V30 8 1 8 9
M  V30 9 1 9 10
M  V30 10 1 10 11
M  V30 11 1 11 12
M  V30 12 1 12 13
M  V30 13 2 13 14
M  V30 14 1 13 15
M  V30 15 1 15 16
M  V30 16 2 16 17
M  V30 17 1 17 18
M  V30 18 1 18 19
M  V30 19 1 19 20
M  V30 20 1 19 21
M  V30 21 1 19 22
M  V30 22 2 18 23
M  V30 23 1 23 24
M  V30 24 1 24 25
M  V30 25 1 25 26
M  V30 26 1 25 27
M  V30 27 1 25 28
M  V30 28 2 24 29
M  V30 29 1 11 30
M  V30 30 2 30 31
M  V30 31 1 31 32
M  V30 32 2 32 33
M  V30 33 1 33 34
M  V30 34 2 34 35
M  V30 35 1 35 36
M  V30 36 2 36 37
M  V30 37 1 37 38
M  V30 38 1 38 39
M  V30 39 1 37 40
M  V30 40 2 40 41
M  V30 41 1 8 3
M  V30 42 1 29 16
M  V30 43 1 41 30
M  V30 44 1 10 5
M  V30 45 1 41 34
M  V30 46 1 1 42
M  V30 47 1 1 43
M  V30 48 1 2 44
M  V30 49 1 3 45 CFG=3
M  V30 50 1 4 46
M  V30 51 1 4 47
M  V30 52 1 6 48
M  V30 53 1 6 49
M  V30 54 1 7 50
M  V30 55 1 7 51
M  V30 56 1 8 52 CFG=1
M  V30 57 1 9 53
M  V30 58 1 9 54
M  V30 59 1 10 55 CFG=3
M  V30 60 1 11 56 CFG=1
M  V30 61 1 12 57
M  V30 62 1 15 58
M  V30 63 1 17 59
M  V30 64 1 23 60
M  V30 65 1 29 61
M  V30 66 1 31 62
M  V30 67 1 32 63
M  V30 68 1 35 64
M  V30 69 1 36 65
M  V30 70 1 39 66
M  V30 71 1 39 67
M  V30 72 1 39 68
M  V30 73 1 40 69
M  V30 END BOND
M  V30 END CTAB
M  END
>  <catalyst_id>  (1) 
QGLQHRHYJCQTQI_FRSFCCSCSA_NONE

>  <source_smiles>  (1) 
C=C[C@H]1CN2CC[C@H]1C[C@H]2[C@@H](NC(=O)Nc1cc(C(F)(F)F)cc(C(F)(F)F)c1)c1ccnc2ccc(OC)cc12

>  <axial_configuration>  (1) 
none

>  <inchikey>  (1) 
QGLQHRHYJCQTQI-FRSFCCSCSA-N

>  <build_source>  (1) 
smiles

>  <rdkit_version>  (1) 
2025.09.6

>  <random_seed>  (1) 
42

>  <generated_at>  (1) 
2026-05-19T12:32:56

$$$$
