catalyst192
     RDKit          3D

  0  0  0  0  0  0  0  0  0  0999 V3000
M  V30 BEGIN CTAB
M  V30 COUNTS 67 73 0 0 0
M  V30 BEGIN ATOM
M  V30 1 C 5.926611 -2.990449 -1.238063 0
M  V30 2 C 4.847689 -2.245282 -0.964899 0
M  V30 3 C 3.748253 -2.667069 -0.018166 0 CFG=1
M  V30 4 C 3.520971 -1.629645 1.113433 0
M  V30 5 N 2.109903 -1.159652 1.168303 0
M  V30 6 C 1.243019 -2.334954 1.411269 0
M  V30 7 C 1.400691 -3.403009 0.318409 0
M  V30 8 C 2.399776 -2.905577 -0.741854 0 CFG=1
M  V30 9 C 1.830450 -1.582913 -1.289467 0
M  V30 10 C 1.784039 -0.528076 -0.155945 0 CFG=1
M  V30 11 C 0.468669 0.334703 -0.123303 0 CFG=2
M  V30 12 O -0.680700 -0.507386 -0.330581 0
M  V30 13 C -1.902210 -0.149566 0.195062 0
M  V30 14 C -2.187788 1.114712 0.709316 0
M  V30 15 C -3.447843 1.419430 1.234022 0
M  V30 16 C -3.686014 2.707707 1.745976 0
M  V30 17 C -4.922759 3.053870 2.282152 0
M  V30 18 C -5.939065 2.113240 2.312069 0
M  V30 19 C -5.715157 0.830612 1.802528 0
M  V30 20 C -4.469031 0.439425 1.245959 0
M  V30 21 C -4.195133 -0.863482 0.699929 0
M  V30 22 C -5.156259 -1.907432 0.655107 0
M  V30 23 C -4.878057 -3.164047 0.112532 0
M  V30 24 C -3.624036 -3.422365 -0.409470 0
M  V30 25 C -2.654335 -2.423471 -0.381364 0
M  V30 26 C -2.906426 -1.144368 0.168160 0
M  V30 27 C 0.549429 1.442232 -1.179196 0
M  V30 28 C -0.044395 1.244050 -2.433215 0
M  V30 29 C 0.031644 2.249260 -3.374321 0
M  V30 30 N 0.658002 3.422374 -3.166024 0
M  V30 31 C 1.242179 3.627687 -1.976707 0
M  V30 32 C 1.887472 4.840516 -1.777703 0
M  V30 33 C 2.531180 5.145784 -0.578736 0
M  V30 34 C 2.531595 4.215075 0.442687 0
M  V30 35 O 3.175001 4.538234 1.598970 0
M  V30 36 C 1.893000 2.989713 0.281031 0
M  V30 37 C 1.229782 2.669877 -0.932142 0
M  V30 38 H 6.077722 -3.967764 -0.790128 0
M  V30 39 H 6.687677 -2.633538 -1.925827 0
M  V30 40 H 4.755197 -1.272733 -1.445011 0
M  V30 41 H 4.043143 -3.614087 0.456490 0
M  V30 42 H 3.783993 -2.080129 2.079855 0
M  V30 43 H 4.188712 -0.763856 1.014299 0
M  V30 44 H 1.490533 -2.771414 2.387566 0
M  V30 45 H 0.195644 -2.030630 1.501657 0
M  V30 46 H 1.754850 -4.342373 0.759646 0
M  V30 47 H 0.430784 -3.613049 -0.145425 0
M  V30 48 H 2.502762 -3.643990 -1.544843 0
M  V30 49 H 0.840956 -1.774560 -1.718474 0
M  V30 50 H 2.452344 -1.210646 -2.111917 0
M  V30 51 H 2.604462 0.179803 -0.341680 0
M  V30 52 H 0.399521 0.778015 0.876855 0
M  V30 53 H -1.439889 1.900736 0.701410 0
M  V30 54 H -2.900419 3.461256 1.730056 0
M  V30 55 H -5.088528 4.054037 2.672832 0
M  V30 56 H -6.909665 2.370660 2.727889 0
M  V30 57 H -6.548232 0.135359 1.849165 0
M  V30 58 H -6.158780 -1.759062 1.046080 0
M  V30 59 H -5.646258 -3.932544 0.098274 0
M  V30 60 H -3.395843 -4.393561 -0.839182 0
M  V30 61 H -1.678815 -2.651357 -0.805362 0
M  V30 62 H -0.570587 0.325958 -2.676767 0
M  V30 63 H -0.425219 2.135205 -4.353330 0
M  V30 64 H 1.890707 5.571380 -2.583361 0
M  V30 65 H 3.029211 6.102525 -0.452251 0
M  V30 66 H 3.113754 3.792037 2.218317 0
M  V30 67 H 1.920114 2.278564 1.100717 0
M  V30 END ATOM
M  V30 BEGIN BOND
M  V30 1 2 1 2
M  V30 2 1 2 3
M  V30 3 1 3 4
M  V30 4 1 4 5
M  V30 5 1 5 6
M  V30 6 1 6 7
M  V30 7 1 7 8
M  V30 8 1 8 9
M  V30 9 1 9 10
M  V30 10 1 10 11
M  V30 11 1 11 12
M  V30 12 1 12 13
M  V30 13 2 13 14
M  V30 14 1 14 15
M  V30 15 2 15 16
M  V30 16 1 16 17
M  V30 17 2 17 18
M  V30 18 1 18 19
M  V30 19 2 19 20
M  V30 20 1 20 21
M  V30 21 2 21 22
M  V30 22 1 22 23
M  V30 23 2 23 24
M  V30 24 1 24 25
M  V30 25 2 25 26
M  V30 26 1 11 27
M  V30 27 2 27 28
M  V30 28 1 28 29
M  V30 29 2 29 30
M  V30 30 1 30 31
M  V30 31 2 31 32
M  V30 32 1 32 33
M  V30 33 2 33 34
M  V30 34 1 34 35
M  V30 35 1 34 36
M  V30 36 2 36 37
M  V30 37 1 8 3
M  V30 38 1 26 13
M  V30 39 1 37 27
M  V30 40 1 10 5
M  V30 41 1 20 15
M  V30 42 1 26 21
M  V30 43 1 37 31
M  V30 44 1 1 38
M  V30 45 1 1 39
M  V30 46 1 2 40
M  V30 47 1 3 41 CFG=1
M  V30 48 1 4 42
M  V30 49 1 4 43
M  V30 50 1 6 44
M  V30 51 1 6 45
M  V30 52 1 7 46
M  V30 53 1 7 47
M  V30 54 1 8 48 CFG=3
M  V30 55 1 9 49
M  V30 56 1 9 50
M  V30 57 1 10 51 CFG=3
M  V30 58 1 11 52 CFG=1
M  V30 59 1 14 53
M  V30 60 1 16 54
M  V30 61 1 17 55
M  V30 62 1 18 56
M  V30 63 1 19 57
M  V30 64 1 22 58
M  V30 65 1 23 59
M  V30 66 1 24 60
M  V30 67 1 25 61
M  V30 68 1 28 62
M  V30 69 1 29 63
M  V30 70 1 32 64
M  V30 71 1 33 65
M  V30 72 1 35 66
M  V30 73 1 36 67
M  V30 END BOND
M  V30 END CTAB
M  END
>  <catalyst_id>  (1) 
LXTIDZQXGAZSHW_MPRHVNSMSA_NONE

>  <source_smiles>  (1) 
C=C[C@H]1CN2CC[C@H]1C[C@H]2[C@H](Oc1cc2ccccc2c2ccccc12)c1ccnc2ccc(O)cc12

>  <axial_configuration>  (1) 
none

>  <inchikey>  (1) 
LXTIDZQXGAZSHW-MPRHVNSMSA-N

>  <build_source>  (1) 
smiles

>  <rdkit_version>  (1) 
2025.09.6

>  <random_seed>  (1) 
42

>  <generated_at>  (1) 
2026-05-19T12:30:14

$$$$
