catalyst171
     RDKit          3D

  0  0  0  0  0  0  0  0  0  0999 V3000
M  V30 BEGIN CTAB
M  V30 COUNTS 63 67 0 0 0
M  V30 BEGIN ATOM
M  V30 1 C 3.856541 2.921118 -1.530400 0
M  V30 2 C 3.148484 2.336697 -0.317976 0
M  V30 3 C 3.389761 0.827858 -0.125873 0 CFG=1
M  V30 4 C 2.646702 0.320781 1.134374 0
M  V30 5 N 1.921268 -0.945490 0.885725 0
M  V30 6 C 2.884965 -1.935941 0.354180 0
M  V30 7 C 3.443833 -1.499253 -1.008662 0
M  V30 8 C 2.976853 -0.064945 -1.320525 0 CFG=1
M  V30 9 C 1.443243 -0.089108 -1.418084 0
M  V30 10 C 0.847227 -0.742197 -0.143051 0 CFG=2
M  V30 11 C -0.417323 0.029949 0.370917 0 CFG=1
M  V30 12 O -1.309858 0.280240 -0.731005 0
M  V30 13 C -2.242240 1.336913 -0.493067 0
M  V30 14 C -1.597721 2.689060 -0.676841 0
M  V30 15 C -1.010578 3.032313 -1.902994 0
M  V30 16 C -0.398082 4.274292 -2.072968 0
M  V30 17 C -0.371099 5.187306 -1.020709 0
M  V30 18 C -0.957684 4.860136 0.200735 0
M  V30 19 C -1.569824 3.617388 0.372861 0
M  V30 20 C -1.126529 -0.715958 1.501170 0
M  V30 21 C -0.926256 -0.237236 2.804272 0
M  V30 22 C -1.546395 -0.878235 3.856080 0
M  V30 23 N -2.348403 -1.948361 3.710308 0
M  V30 24 C -2.539345 -2.429106 2.472393 0
M  V30 25 C -3.355958 -3.542651 2.339715 0
M  V30 26 C -3.623528 -4.129566 1.099333 0
M  V30 27 C -3.061584 -3.591643 -0.048164 0
M  V30 28 O -3.230675 -4.054671 -1.322867 0
M  V30 29 C -4.057356 -5.200122 -1.486788 0
M  V30 30 C -2.237750 -2.468416 0.066333 0
M  V30 31 C -1.955062 -1.860210 1.316429 0
M  V30 32 H 4.924961 2.684599 -1.515237 0
M  V30 33 H 3.750595 4.010837 -1.536509 0
M  V30 34 H 3.428495 2.545107 -2.464074 0
M  V30 35 H 2.077475 2.556000 -0.389851 0
M  V30 36 H 3.508221 2.862615 0.575651 0
M  V30 37 H 4.468502 0.689906 0.035926 0
M  V30 38 H 1.959430 1.075889 1.531357 0
M  V30 39 H 3.375798 0.161167 1.939848 0
M  V30 40 H 2.402950 -2.917391 0.264753 0
M  V30 41 H 3.704236 -2.077946 1.070389 0
M  V30 42 H 4.539033 -1.547277 -0.994810 0
M  V30 43 H 3.098628 -2.183189 -1.793439 0
M  V30 44 H 3.422714 0.273533 -2.260262 0
M  V30 45 H 1.068875 0.926964 -1.568967 0
M  V30 46 H 1.139089 -0.670472 -2.297611 0
M  V30 47 H 0.497408 -1.739815 -0.442539 0
M  V30 48 H -0.079275 1.004430 0.741399 0
M  V30 49 H -3.045862 1.236514 -1.231638 0
M  V30 50 H -2.710256 1.236056 0.492578 0
M  V30 51 H -1.021072 2.321657 -2.727278 0
M  V30 52 H 0.058540 4.527939 -3.026007 0
M  V30 53 H 0.105152 6.155150 -1.153485 0
M  V30 54 H -0.939307 5.574615 1.019672 0
M  V30 55 H -2.022021 3.377539 1.332610 0
M  V30 56 H -0.284610 0.615391 3.001336 0
M  V30 57 H -1.408953 -0.538477 4.878382 0
M  V30 58 H -3.799535 -3.972008 3.235659 0
M  V30 59 H -4.270366 -4.999369 1.074967 0
M  V30 60 H -3.641025 -6.065977 -0.961363 0
M  V30 61 H -4.087030 -5.440974 -2.553806 0
M  V30 62 H -5.083252 -4.996064 -1.162779 0
M  V30 63 H -1.813166 -2.067892 -0.850656 0
M  V30 END ATOM
M  V30 BEGIN BOND
M  V30 1 1 1 2
M  V30 2 1 2 3
M  V30 3 1 3 4
M  V30 4 1 4 5
M  V30 5 1 5 6
M  V30 6 1 6 7
M  V30 7 1 7 8
M  V30 8 1 8 9
M  V30 9 1 9 10
M  V30 10 1 10 11
M  V30 11 1 11 12
M  V30 12 1 12 13
M  V30 13 1 13 14
M  V30 14 2 14 15
M  V30 15 1 15 16
M  V30 16 2 16 17
M  V30 17 1 17 18
M  V30 18 2 18 19
M  V30 19 1 11 20
M  V30 20 2 20 21
M  V30 21 1 21 22
M  V30 22 2 22 23
M  V30 23 1 23 24
M  V30 24 2 24 25
M  V30 25 1 25 26
M  V30 26 2 26 27
M  V30 27 1 27 28
M  V30 28 1 28 29
M  V30 29 1 27 30
M  V30 30 2 30 31
M  V30 31 1 8 3
M  V30 32 1 19 14
M  V30 33 1 31 20
M  V30 34 1 10 5
M  V30 35 1 31 24
M  V30 36 1 1 32
M  V30 37 1 1 33
M  V30 38 1 1 34
M  V30 39 1 2 35
M  V30 40 1 2 36
M  V30 41 1 3 37 CFG=1
M  V30 42 1 4 38
M  V30 43 1 4 39
M  V30 44 1 6 40
M  V30 45 1 6 41
M  V30 46 1 7 42
M  V30 47 1 7 43
M  V30 48 1 8 44 CFG=3
M  V30 49 1 9 45
M  V30 50 1 9 46
M  V30 51 1 10 47 CFG=3
M  V30 52 1 11 48 CFG=1
M  V30 53 1 13 49
M  V30 54 1 13 50
M  V30 55 1 15 51
M  V30 56 1 16 52
M  V30 57 1 17 53
M  V30 58 1 18 54
M  V30 59 1 19 55
M  V30 60 1 21 56
M  V30 61 1 22 57
M  V30 62 1 25 58
M  V30 63 1 26 59
M  V30 64 1 29 60
M  V30 65 1 29 61
M  V30 66 1 29 62
M  V30 67 1 30 63
M  V30 END BOND
M  V30 END CTAB
M  END
>  <catalyst_id>  (1) 
LIIJKTCXHIHXQW_XMODGQSNSA_NONE

>  <source_smiles>  (1) 
CC[C@H]1CN2CC[C@H]1C[C@@H]2[C@@H](OCc1ccccc1)c1ccnc2ccc(OC)cc12

>  <axial_configuration>  (1) 
none

>  <inchikey>  (1) 
LIIJKTCXHIHXQW-XMODGQSNSA-N

>  <build_source>  (1) 
smiles

>  <rdkit_version>  (1) 
2025.09.6

>  <random_seed>  (1) 
42

>  <generated_at>  (1) 
2026-05-19T12:36:56

$$$$
