catalyst101
     RDKit          3D

  0  0  0  0  0  0  0  0  0  0999 V3000
M  V30 BEGIN CTAB
M  V30 COUNTS 14 14 0 0 0
M  V30 BEGIN ATOM
M  V30 1 O 2.014687 -1.210524 -1.087168 0
M  V30 2 C 1.468672 -0.456602 -0.290753 0
M  V30 3 O 2.084599 0.724953 -0.008675 0
M  V30 4 C 0.110873 -0.663994 0.484414 0 CFG=2
M  V30 5 C -1.190184 -0.676915 -0.343745 0
M  V30 6 C -1.282399 0.816118 -0.002799 0
M  V30 7 N -0.410213 0.566705 1.163847 0
M  V30 8 H 2.899193 0.688401 -0.553629 0
M  V30 9 H 0.188552 -1.517537 1.168892 0
M  V30 10 H -1.988478 -1.288325 0.093088 0
M  V30 11 H -1.094651 -0.917373 -1.405669 0
M  V30 12 H -2.282373 1.183400 0.242718 0
M  V30 13 H -0.835767 1.477031 -0.754835 0
M  V30 14 H 0.317490 1.274662 1.294314 0
M  V30 END ATOM
M  V30 BEGIN BOND
M  V30 1 2 1 2
M  V30 2 1 2 3
M  V30 3 1 2 4
M  V30 4 1 4 5
M  V30 5 1 5 6
M  V30 6 1 6 7
M  V30 7 1 7 4
M  V30 8 1 3 8
M  V30 9 1 4 9 CFG=1
M  V30 10 1 5 10
M  V30 11 1 5 11
M  V30 12 1 6 12
M  V30 13 1 6 13
M  V30 14 1 7 14
M  V30 END BOND
M  V30 END CTAB
M  END
>  <catalyst_id>  (1) 
IADUEWIQBXOCDZ_VKHMYHEASA_NONE

>  <source_smiles>  (1) 
O=C(O)[C@@H]1CCN1

>  <axial_configuration>  (1) 
none

>  <inchikey>  (1) 
IADUEWIQBXOCDZ-VKHMYHEASA-N

>  <build_source>  (1) 
smiles

>  <rdkit_version>  (1) 
2025.09.6

>  <random_seed>  (1) 
42

>  <generated_at>  (1) 
2026-05-19T12:31:43

$$$$
