catalyst227
     RDKit          3D

  0  0  0  0  0  0  0  0  0  0999 V3000
M  V30 BEGIN CTAB
M  V30 COUNTS 81 85 0 0 0
M  V30 BEGIN ATOM
M  V30 1 C 5.722655 3.928700 -1.949611 0
M  V30 2 C 4.882437 2.940992 -1.614335 0
M  V30 3 C 4.055852 2.929166 -0.349898 0 CFG=1
M  V30 4 C 2.539310 2.783387 -0.644073 0
M  V30 5 N 1.939430 1.619164 0.061102 0
M  V30 6 C 2.132496 1.805248 1.518130 0
M  V30 7 C 3.615697 1.950527 1.890529 0
M  V30 8 C 4.477361 1.800854 0.623329 0 CFG=1
M  V30 9 C 4.144678 0.416500 0.035933 0
M  V30 10 C 2.661667 0.379596 -0.400097 0 CFG=1
M  V30 11 C 1.932480 -0.952281 0.026554 0 CFG=1
M  V30 12 N 0.472825 -0.738716 -0.033488 0
M  V30 13 C -0.515115 -1.433654 0.638933 0
M  V30 14 S -0.278184 -2.840049 1.522277 0
M  V30 15 C -1.856650 -0.792870 0.527537 0
M  V30 16 C -1.998591 0.550543 0.902526 0
M  V30 17 C -3.231884 1.202856 0.787856 0
M  V30 18 C -3.430169 2.676934 1.183386 0
M  V30 19 C -3.925224 3.481509 -0.038144 0
M  V30 20 C -4.475998 2.773231 2.314659 0
M  V30 21 C -2.142274 3.366775 1.689733 0
M  V30 22 C -4.316653 0.447916 0.288580 0
M  V30 23 C -4.207216 -0.908318 -0.095680 0
M  V30 24 C -5.439682 -1.660975 -0.629695 0
M  V30 25 C -5.159382 -3.134061 -1.004842 0
M  V30 26 C -6.549131 -1.668292 0.444255 0
M  V30 27 C -5.965816 -0.959524 -1.900602 0
M  V30 28 C -2.949642 -1.513274 0.031793 0
M  V30 29 C 2.359099 -2.114749 -0.867600 0
M  V30 30 C 1.862182 -2.161147 -2.180665 0
M  V30 31 C 2.272912 -3.174169 -3.020770 0
M  V30 32 N 3.142854 -4.133880 -2.660882 0
M  V30 33 C 3.616416 -4.119172 -1.405709 0
M  V30 34 C 4.500797 -5.127872 -1.049234 0
M  V30 35 C 5.051552 -5.213215 0.228991 0
M  V30 36 C 4.709356 -4.268486 1.182219 0
M  V30 37 C 3.824169 -3.242251 0.849069 0
M  V30 38 C 3.261356 -3.135120 -0.448797 0
M  V30 39 H 6.290759 3.883885 -2.874268 0
M  V30 40 H 5.868632 4.798508 -1.316540 0
M  V30 41 H 4.780240 2.096069 -2.293014 0
M  V30 42 H 4.200828 3.887616 0.169161 0
M  V30 43 H 2.338288 2.698111 -1.719914 0
M  V30 44 H 2.016809 3.696565 -0.329246 0
M  V30 45 H 1.686532 0.970863 2.071756 0
M  V30 46 H 1.579017 2.693613 1.848052 0
M  V30 47 H 3.793252 2.927626 2.355402 0
M  V30 48 H 3.891614 1.187340 2.628082 0
M  V30 49 H 5.541379 1.868050 0.876361 0
M  V30 50 H 4.790404 0.194980 -0.821403 0
M  V30 51 H 4.358521 -0.344479 0.794049 0
M  V30 52 H 2.635890 0.414654 -1.498844 0
M  V30 53 H 2.150951 -1.152225 1.077877 0
M  V30 54 H 0.227358 0.163776 -0.432391 0
M  V30 55 H -1.126312 1.066083 1.294225 0
M  V30 56 H -4.037693 4.543981 0.207692 0
M  V30 57 H -3.218497 3.405250 -0.873041 0
M  V30 58 H -4.898987 3.132702 -0.398799 0
M  V30 59 H -4.612186 3.811350 2.639642 0
M  V30 60 H -5.459077 2.403527 2.003167 0
M  V30 61 H -4.166516 2.187865 3.188641 0
M  V30 62 H -1.355379 3.363244 0.926220 0
M  V30 63 H -2.332405 4.414546 1.951801 0
M  V30 64 H -1.748414 2.877690 2.588344 0
M  V30 65 H -5.286694 0.934397 0.196842 0
M  V30 66 H -4.811537 -3.711534 -0.140344 0
M  V30 67 H -4.403686 -3.212593 -1.795131 0
M  V30 68 H -6.065980 -3.626329 -1.376949 0
M  V30 69 H -7.426043 -2.230702 0.102724 0
M  V30 70 H -6.195928 -2.132452 1.372751 0
M  V30 71 H -6.894040 -0.658558 0.692224 0
M  V30 72 H -5.189652 -0.909988 -2.673526 0
M  V30 73 H -6.297690 0.065421 -1.702145 0
M  V30 74 H -6.823005 -1.497168 -2.322588 0
M  V30 75 H -2.793155 -2.548611 -0.257267 0
M  V30 76 H 1.159421 -1.418465 -2.545152 0
M  V30 77 H 1.904537 -3.241013 -4.040181 0
M  V30 78 H 4.765601 -5.876599 -1.792671 0
M  V30 79 H 5.735740 -6.020854 0.473700 0
M  V30 80 H 5.119910 -4.330506 2.186707 0
M  V30 81 H 3.571219 -2.537458 1.635024 0
M  V30 END ATOM
M  V30 BEGIN BOND
M  V30 1 2 1 2
M  V30 2 1 2 3
M  V30 3 1 3 4
M  V30 4 1 4 5
M  V30 5 1 5 6
M  V30 6 1 6 7
M  V30 7 1 7 8
M  V30 8 1 8 9
M  V30 9 1 9 10
M  V30 10 1 10 11
M  V30 11 1 11 12
M  V30 12 1 12 13
M  V30 13 2 13 14
M  V30 14 1 13 15
M  V30 15 2 15 16
M  V30 16 1 16 17
M  V30 17 1 17 18
M  V30 18 1 18 19
M  V30 19 1 18 20
M  V30 20 1 18 21
M  V30 21 2 17 22
M  V30 22 1 22 23
M  V30 23 1 23 24
M  V30 24 1 24 25
M  V30 25 1 24 26
M  V30 26 1 24 27
M  V30 27 2 23 28
M  V30 28 1 11 29
M  V30 29 2 29 30
M  V30 30 1 30 31
M  V30 31 2 31 32
M  V30 32 1 32 33
M  V30 33 2 33 34
M  V30 34 1 34 35
M  V30 35 2 35 36
M  V30 36 1 36 37
M  V30 37 2 37 38
M  V30 38 1 8 3
M  V30 39 1 28 15
M  V30 40 1 38 29
M  V30 41 1 10 5
M  V30 42 1 38 33
M  V30 43 1 1 39
M  V30 44 1 1 40
M  V30 45 1 2 41
M  V30 46 1 3 42 CFG=1
M  V30 47 1 4 43
M  V30 48 1 4 44
M  V30 49 1 6 45
M  V30 50 1 6 46
M  V30 51 1 7 47
M  V30 52 1 7 48
M  V30 53 1 8 49 CFG=1
M  V30 54 1 9 50
M  V30 55 1 9 51
M  V30 56 1 10 52 CFG=3
M  V30 57 1 11 53 CFG=1
M  V30 58 1 12 54
M  V30 59 1 16 55
M  V30 60 1 19 56
M  V30 61 1 19 57
M  V30 62 1 19 58
M  V30 63 1 20 59
M  V30 64 1 20 60
M  V30 65 1 20 61
M  V30 66 1 21 62
M  V30 67 1 21 63
M  V30 68 1 21 64
M  V30 69 1 22 65
M  V30 70 1 25 66
M  V30 71 1 25 67
M  V30 72 1 25 68
M  V30 73 1 26 69
M  V30 74 1 26 70
M  V30 75 1 26 71
M  V30 76 1 27 72
M  V30 77 1 27 73
M  V30 78 1 27 74
M  V30 79 1 28 75
M  V30 80 1 30 76
M  V30 81 1 31 77
M  V30 82 1 34 78
M  V30 83 1 35 79
M  V30 84 1 36 80
M  V30 85 1 37 81
M  V30 END BOND
M  V30 END CTAB
M  END
>  <catalyst_id>  (1) 
NTXSXTOQYQYRBS_FPACPZPDSA_NONE

>  <source_smiles>  (1) 
C=C[C@H]1CN2CC[C@H]1C[C@H]2[C@@H](NC(=S)c1cc(C(C)(C)C)cc(C(C)(C)C)c1)c1ccnc2ccccc12

>  <axial_configuration>  (1) 
none

>  <inchikey>  (1) 
NTXSXTOQYQYRBS-FPACPZPDSA-N

>  <build_source>  (1) 
smiles

>  <rdkit_version>  (1) 
2025.09.6

>  <random_seed>  (1) 
42

>  <generated_at>  (1) 
2026-05-19T12:34:47

$$$$
