catalyst13
     RDKit          3D

  0  0  0  0  0  0  0  0  0  0999 V3000
M  V30 BEGIN CTAB
M  V30 COUNTS 81 86 0 0 0
M  V30 BEGIN ATOM
M  V30 1 C -1.835784 -3.209732 -0.519895 0
M  V30 2 N -0.822065 -2.095522 -0.575702 0 CHG=1
M  V30 3 C -0.738894 -1.544691 -1.992478 0
M  V30 4 C 0.550725 -2.685426 -0.240797 0
M  V30 5 C -1.149772 -0.991962 0.479942 0
M  V30 6 C -1.447838 0.431483 0.032112 0
M  V30 7 C -2.748174 0.824475 -0.374066 0
M  V30 8 C -3.915131 -0.071841 -0.365812 0
M  V30 9 C -4.664368 -0.240296 0.809524 0
M  V30 10 C -5.823236 -1.034293 0.833839 0
M  V30 11 C -6.600193 -1.199388 2.120445 0
M  V30 12 F -7.422543 -2.283977 2.109892 0
M  V30 13 F -5.786045 -1.361220 3.199775 0
M  V30 14 F -7.387380 -0.126256 2.393595 0
M  V30 15 C -6.259763 -1.633595 -0.357600 0
M  V30 16 C -5.561162 -1.439057 -1.558520 0
M  V30 17 C -6.021136 -2.077477 -2.848820 0
M  V30 18 F -7.238454 -2.676149 -2.755384 0
M  V30 19 F -5.155306 -3.046074 -3.259641 0
M  V30 20 F -6.109023 -1.189321 -3.873707 0
M  V30 21 C -4.399985 -0.647190 -1.549480 0
M  V30 22 C -2.959617 2.143388 -0.817092 0
M  V30 23 C -1.936753 3.096081 -0.850773 0
M  V30 24 C -2.200054 4.397481 -1.315689 0
M  V30 25 C -1.200772 5.367973 -1.339517 0
M  V30 26 C 0.074331 5.047373 -0.898969 0
M  V30 27 C 0.343328 3.758647 -0.433209 0
M  V30 28 C -0.648471 2.748836 -0.394050 0
M  V30 29 C -0.412998 1.420933 0.092148 0
M  V30 30 C 0.887007 1.117656 0.792493 0
M  V30 31 C 2.004352 0.606222 0.041003 0
M  V30 32 O 1.935908 0.388658 -1.221050 0 CHG=-1
M  V30 33 C 3.191411 0.338367 0.794360 0
M  V30 34 C 4.426606 -0.187011 0.156567 0
M  V30 35 C 5.116641 0.565112 -0.807181 0
M  V30 36 C 6.288905 0.088071 -1.411248 0
M  V30 37 C 6.989712 0.902578 -2.468394 0
M  V30 38 F 8.346838 0.754316 -2.420155 0
M  V30 39 F 6.769116 2.242833 -2.373384 0
M  V30 40 F 6.630826 0.545390 -3.732527 0
M  V30 41 C 6.772217 -1.178728 -1.045054 0
M  V30 42 C 6.100954 -1.958628 -0.090789 0
M  V30 43 C 6.615599 -3.316378 0.310197 0
M  V30 44 F 5.620096 -4.234243 0.475820 0
M  V30 45 F 7.471730 -3.863005 -0.598225 0
M  V30 46 F 7.293444 -3.288197 1.491133 0
M  V30 47 C 4.938903 -1.446174 0.508424 0
M  V30 48 C 3.237247 0.562977 2.186674 0
M  V30 49 C 2.147370 1.057426 2.900542 0
M  V30 50 C 2.249888 1.262658 4.288832 0
M  V30 51 C 1.179083 1.765847 5.022821 0
M  V30 52 C -0.005700 2.075544 4.374013 0
M  V30 53 C -0.113474 1.873837 2.995405 0
M  V30 54 C 0.954673 1.353304 2.216618 0
M  V30 55 H -1.839371 -3.632070 0.489784 0
M  V30 56 H -1.556346 -3.978228 -1.247490 0
M  V30 57 H -2.819848 -2.809542 -0.764130 0
M  V30 58 H -1.741969 -1.271182 -2.319706 0
M  V30 59 H -0.086719 -0.681948 -2.032762 0
M  V30 60 H -0.357204 -2.334115 -2.648241 0
M  V30 61 H 1.312336 -1.918905 -0.302254 0
M  V30 62 H 0.768347 -3.484891 -0.956399 0
M  V30 63 H 0.508503 -3.099549 0.771727 0
M  V30 64 H -2.008880 -1.364244 1.051780 0
M  V30 65 H -0.346691 -1.017609 1.222985 0
M  V30 66 H -4.340415 0.257155 1.726169 0
M  V30 67 H -7.165665 -2.243449 -0.352415 0
M  V30 68 H -3.879730 -0.459393 -2.490092 0
M  V30 69 H -3.957947 2.435234 -1.145046 0
M  V30 70 H -3.193142 4.668014 -1.667324 0
M  V30 71 H -1.415378 6.367310 -1.706898 0
M  V30 72 H 0.869699 5.787134 -0.923276 0
M  V30 73 H 1.362243 3.531440 -0.119638 0
M  V30 74 H 4.705331 1.532238 -1.102539 0
M  V30 75 H 7.677005 -1.562539 -1.518205 0
M  V30 76 H 4.408425 -2.042909 1.249163 0
M  V30 77 H 4.168808 0.358675 2.712462 0
M  V30 78 H 3.179090 1.037246 4.808285 0
M  V30 79 H 1.278371 1.927326 6.092400 0
M  V30 80 H -0.843158 2.487528 4.930112 0
M  V30 81 H -1.051679 2.153995 2.521920 0
M  V30 END ATOM
M  V30 BEGIN BOND
M  V30 1 1 1 2
M  V30 2 1 2 3
M  V30 3 1 2 4
M  V30 4 1 2 5
M  V30 5 1 5 6
M  V30 6 2 6 7
M  V30 7 1 7 8
M  V30 8 2 8 9
M  V30 9 1 9 10
M  V30 10 1 10 11
M  V30 11 1 11 12
M  V30 12 1 11 13
M  V30 13 1 11 14
M  V30 14 2 10 15
M  V30 15 1 15 16
M  V30 16 1 16 17
M  V30 17 1 17 18
M  V30 18 1 17 19
M  V30 19 1 17 20
M  V30 20 2 16 21
M  V30 21 1 7 22
M  V30 22 2 22 23
M  V30 23 1 23 24
M  V30 24 2 24 25
M  V30 25 1 25 26
M  V30 26 2 26 27
M  V30 27 1 27 28
M  V30 28 2 28 29
M  V30 29 1 29 30
M  V30 30 2 30 31
M  V30 31 1 31 32
M  V30 32 1 31 33
M  V30 33 1 33 34
M  V30 34 2 34 35
M  V30 35 1 35 36
M  V30 36 1 36 37
M  V30 37 1 37 38
M  V30 38 1 37 39
M  V30 39 1 37 40
M  V30 40 2 36 41
M  V30 41 1 41 42
M  V30 42 1 42 43
M  V30 43 1 43 44
M  V30 44 1 43 45
M  V30 45 1 43 46
M  V30 46 2 42 47
M  V30 47 2 33 48
M  V30 48 1 48 49
M  V30 49 2 49 50
M  V30 50 1 50 51
M  V30 51 2 51 52
M  V30 52 1 52 53
M  V30 53 2 53 54
M  V30 54 1 29 6
M  V30 55 1 54 30
M  V30 56 1 21 8
M  V30 57 1 28 23
M  V30 58 1 47 34
M  V30 59 1 54 49
M  V30 60 1 1 55
M  V30 61 1 1 56
M  V30 62 1 1 57
M  V30 63 1 3 58
M  V30 64 1 3 59
M  V30 65 1 3 60
M  V30 66 1 4 61
M  V30 67 1 4 62
M  V30 68 1 4 63
M  V30 69 1 5 64
M  V30 70 1 5 65
M  V30 71 1 9 66
M  V30 72 1 15 67
M  V30 73 1 21 68
M  V30 74 1 22 69
M  V30 75 1 24 70
M  V30 76 1 25 71
M  V30 77 1 26 72
M  V30 78 1 27 73
M  V30 79 1 35 74
M  V30 80 1 41 75
M  V30 81 1 47 76
M  V30 82 1 48 77
M  V30 83 1 50 78
M  V30 84 1 51 79
M  V30 85 1 52 80
M  V30 86 1 53 81
M  V30 END BOND
M  V30 END CTAB
M  END
>  <catalyst_id>  (1) 
BGQLSXWMQRROON_UHFFFAOYSA_R

>  <source_smiles>  (1) 
C[N+](C)(C)Cc1c(-c2cc(C(F)(F)F)cc(C(F)(F)F)c2)cc2ccccc2c1-c1c([O-])c(-c2cc(C(F)(F)F)cc(C(F)(F)F)c2)cc2ccccc12

>  <axial_configuration>  (1) 
R

>  <inchikey>  (1) 
BGQLSXWMQRROON-UHFFFAOYSA-N

>  <build_source>  (1) 
smiles+axial_free

>  <final_biaryl_angle_deg>  (1) 
85.00

>  <rdkit_version>  (1) 
2025.09.6

>  <random_seed>  (1) 
42

>  <generated_at>  (1) 
2026-05-19T12:34:14

$$$$
