catalyst359
     RDKit          3D

  0  0  0  0  0  0  0  0  0  0999 V3000
M  V30 BEGIN CTAB
M  V30 COUNTS 69 73 0 0 0
M  V30 BEGIN ATOM
M  V30 1 C -4.573296 -1.943956 2.177465 0
M  V30 2 C -3.554662 -2.512123 1.164491 0
M  V30 3 C -4.385334 -3.331441 0.153269 0
M  V30 4 C -2.409500 -3.314275 1.826033 0 CFG=2
M  V30 5 C -1.674685 -2.256828 2.673789 0
M  V30 6 C -1.794284 -0.982606 1.820900 0
M  V30 7 C -2.542121 -1.469532 0.545468 0 CFG=2
M  V30 8 C -3.239817 -0.369778 -0.281620 0
M  V30 9 N -2.397911 0.672810 -0.884993 0
M  V30 10 C -3.138700 1.413702 -1.917289 0
M  V30 11 C -2.264950 2.630159 -2.168941 0
M  V30 12 C -1.511401 2.846899 -0.864354 0
M  V30 13 C -1.951470 1.709153 0.047931 0
M  V30 14 C -1.583087 -2.416137 -0.269094 0 CFG=1
M  V30 15 N -0.243626 -1.876612 -0.509224 0
M  V30 16 C 0.051494 -1.154147 -1.572835 0
M  V30 17 C 1.015495 -0.248628 -1.944206 0
M  V30 18 N 2.088519 0.333693 -1.447931 0
M  V30 19 C 2.471992 0.228414 -0.053283 0
M  V30 20 C 3.727319 1.033459 0.187550 0
M  V30 21 C 3.647976 2.358216 0.641602 0
M  V30 22 C 4.807450 3.120503 0.855444 0
M  V30 23 C 4.706593 4.550094 1.335310 0
M  V30 24 F 3.617822 4.770246 2.123792 0
M  V30 25 F 5.783608 4.941888 2.070550 0
M  V30 26 F 4.610458 5.434305 0.305991 0
M  V30 27 C 6.058720 2.544923 0.580052 0
M  V30 28 C 6.161460 1.228283 0.101663 0
M  V30 29 C 7.513922 0.611915 -0.172860 0
M  V30 30 F 8.019752 -0.022798 0.919615 0
M  V30 31 F 7.486222 -0.316477 -1.168289 0
M  V30 32 F 8.451049 1.528090 -0.542775 0
M  V30 33 C 4.987725 0.481442 -0.085763 0
M  V30 34 C 0.384720 -0.040678 -3.272368 0
M  V30 35 O 0.561657 0.624470 -4.263651 0
M  V30 36 C -0.632192 -1.046683 -2.892345 0
M  V30 37 O -1.562116 -1.531974 -3.491884 0
M  V30 38 C -1.482559 -3.664551 0.643176 0
M  V30 39 H -5.339336 -1.349095 1.667490 0
M  V30 40 H -4.142018 -1.303345 2.949024 0
M  V30 41 H -5.084815 -2.761697 2.698863 0
M  V30 42 H -3.807239 -3.786806 -0.652725 0
M  V30 43 H -5.146852 -2.703422 -0.322800 0
M  V30 44 H -4.905787 -4.149401 0.665367 0
M  V30 45 H -2.716958 -4.189814 2.402926 0
M  V30 46 H -0.628896 -2.523640 2.859826 0
M  V30 47 H -2.154408 -2.117941 3.648383 0
M  V30 48 H -0.806834 -0.559010 1.623063 0
M  V30 49 H -2.361151 -0.213142 2.356476 0
M  V30 50 H -3.763698 -0.881637 -1.100038 0
M  V30 51 H -4.025833 0.102083 0.321918 0
M  V30 52 H -3.277057 0.824899 -2.829510 0
M  V30 53 H -4.124389 1.732735 -1.554163 0
M  V30 54 H -2.861102 3.505479 -2.445471 0
M  V30 55 H -1.554529 2.438293 -2.981207 0
M  V30 56 H -0.431234 2.805646 -1.047731 0
M  V30 57 H -1.739433 3.822239 -0.422497 0
M  V30 58 H -2.766598 2.050833 0.698098 0
M  V30 59 H -1.115337 1.389486 0.672760 0
M  V30 60 H -2.038235 -2.714230 -1.219809 0
M  V30 61 H 0.324149 -1.798724 0.329735 0
M  V30 62 H 2.553538 1.083815 -1.961307 0
M  V30 63 H 2.652136 -0.818383 0.221511 0
M  V30 64 H 1.666646 0.596477 0.594926 0
M  V30 65 H 2.670869 2.803963 0.832655 0
M  V30 66 H 6.965986 3.132072 0.735326 0
M  V30 67 H 5.054760 -0.541509 -0.459614 0
M  V30 68 H -0.461246 -3.887430 0.972143 0
M  V30 69 H -1.847339 -4.552234 0.114172 0
M  V30 END ATOM
M  V30 BEGIN BOND
M  V30 1 1 1 2
M  V30 2 1 2 3
M  V30 3 1 2 4
M  V30 4 1 4 5
M  V30 5 1 5 6
M  V30 6 1 6 7
M  V30 7 1 7 8 CFG=3
M  V30 8 1 8 9
M  V30 9 1 9 10
M  V30 10 1 10 11
M  V30 11 1 11 12
M  V30 12 1 12 13
M  V30 13 1 7 14
M  V30 14 1 14 15
M  V30 15 1 15 16
M  V30 16 2 16 17
M  V30 17 1 17 18
M  V30 18 1 18 19
M  V30 19 1 19 20
M  V30 20 2 20 21
M  V30 21 1 21 22
M  V30 22 1 22 23
M  V30 23 1 23 24
M  V30 24 1 23 25
M  V30 25 1 23 26
M  V30 26 2 22 27
M  V30 27 1 27 28
M  V30 28 1 28 29
M  V30 29 1 29 30
M  V30 30 1 29 31
M  V30 31 1 29 32
M  V30 32 2 28 33
M  V30 33 1 17 34
M  V30 34 2 34 35
M  V30 35 1 34 36
M  V30 36 2 36 37
M  V30 37 1 14 38
M  V30 38 1 7 2
M  V30 39 1 13 9
M  V30 40 1 36 16
M  V30 41 1 38 4
M  V30 42 1 33 20
M  V30 43 1 1 39
M  V30 44 1 1 40
M  V30 45 1 1 41
M  V30 46 1 3 42
M  V30 47 1 3 43
M  V30 48 1 3 44
M  V30 49 1 4 45 CFG=1
M  V30 50 1 5 46
M  V30 51 1 5 47
M  V30 52 1 6 48
M  V30 53 1 6 49
M  V30 54 1 8 50
M  V30 55 1 8 51
M  V30 56 1 10 52
M  V30 57 1 10 53
M  V30 58 1 11 54
M  V30 59 1 11 55
M  V30 60 1 12 56
M  V30 61 1 12 57
M  V30 62 1 13 58
M  V30 63 1 13 59
M  V30 64 1 14 60 CFG=3
M  V30 65 1 15 61
M  V30 66 1 18 62
M  V30 67 1 19 63
M  V30 68 1 19 64
M  V30 69 1 21 65
M  V30 70 1 27 66
M  V30 71 1 33 67
M  V30 72 1 38 68
M  V30 73 1 38 69
M  V30 END BOND
M  V30 END CTAB
M  END
>  <catalyst_id>  (1) 
VCEYEZQQGRBADE_CVCXRKFISA_NONE

>  <source_smiles>  (1) 
CC1(C)[C@@H]2CC[C@@]1(CN1CCCC1)C(Nc1c(NCc3cc(C(F)(F)F)cc(C(F)(F)F)c3)c(=O)c1=O)C2

>  <axial_configuration>  (1) 
none

>  <inchikey>  (1) 
VCEYEZQQGRBADE-CVCXRKFISA-N

>  <build_source>  (1) 
smiles

>  <rdkit_version>  (1) 
2025.09.6

>  <random_seed>  (1) 
42

>  <generated_at>  (1) 
2026-05-19T12:34:49

$$$$
