catalyst212
     RDKit          3D

  0  0  0  0  0  0  0  0  0  0999 V3000
M  V30 BEGIN CTAB
M  V30 COUNTS 83 88 0 0 0
M  V30 BEGIN ATOM
M  V30 1 C -3.454651 5.244281 -0.994975 0
M  V30 2 C -3.252264 3.920429 -1.011356 0
M  V30 3 C -3.722631 3.009355 -2.121961 0 CFG=1
M  V30 4 C -2.544060 2.243143 -2.775698 0
M  V30 5 N -2.827821 0.791729 -2.918580 0
M  V30 6 C -4.098867 0.638295 -3.665629 0
M  V30 7 C -5.286942 1.236422 -2.895292 0
M  V30 8 C -4.769603 1.971312 -1.645188 0 CFG=1
M  V30 9 C -4.086962 0.919104 -0.750648 0
M  V30 10 C -3.000541 0.168546 -1.560461 0 CFG=2
M  V30 11 C -1.648000 0.034972 -0.767857 0 CFG=2
M  V30 12 N -0.544861 -0.261902 -1.691318 0
M  V30 13 C 0.799843 -0.267539 -1.518001 0
M  V30 14 S 1.743791 -0.549047 -2.865689 0
M  V30 15 N 1.252668 -0.005042 -0.263566 0
M  V30 16 C 2.610272 -0.241215 0.262174 0 CFG=2
M  V30 17 C 2.701772 -1.688872 0.740057 0
M  V30 18 C 1.844560 -2.185957 1.735590 0
M  V30 19 C 1.934464 -3.513399 2.156407 0
M  V30 20 C 2.885151 -4.360615 1.593522 0
M  V30 21 C 3.744151 -3.882426 0.606602 0
M  V30 22 C 3.652356 -2.556231 0.180078 0
M  V30 23 C 3.011891 0.776236 1.397366 0 CFG=2
M  V30 24 N 2.850261 2.200277 0.950690 0
M  V30 25 S 1.350917 2.926898 1.153663 0
M  V30 26 C 1.019734 3.512446 -0.494160 0
M  V30 27 O 1.589820 4.077933 1.995001 0
M  V30 28 O 0.364650 1.930278 1.510525 0
M  V30 29 C 4.461114 0.572304 1.842894 0
M  V30 30 C 4.742280 0.103854 3.135452 0
M  V30 31 C 6.061676 -0.086962 3.549206 0
M  V30 32 C 7.114506 0.189700 2.679626 0
M  V30 33 C 6.851165 0.657000 1.394130 0
M  V30 34 C 5.533433 0.848020 0.976749 0
M  V30 35 C -1.768561 -0.968405 0.379290 0
M  V30 36 C -1.905905 -0.441788 1.673934 0
M  V30 37 C -2.017332 -1.302129 2.745614 0
M  V30 38 N -2.004574 -2.640615 2.628342 0
M  V30 39 C -1.886508 -3.167938 1.399569 0
M  V30 40 C -1.882528 -4.552475 1.301050 0
M  V30 41 C -1.767438 -5.207321 0.075535 0
M  V30 42 C -1.657507 -4.462073 -1.086459 0
M  V30 43 C -1.661772 -3.068784 -1.014183 0
M  V30 44 C -1.769775 -2.385331 0.223263 0
M  V30 45 H -3.984881 5.754193 -1.793740 0
M  V30 46 H -3.094677 5.851892 -0.169557 0
M  V30 47 H -2.713600 3.472474 -0.178912 0
M  V30 48 H -4.196089 3.624818 -2.900591 0
M  V30 49 H -1.605823 2.390574 -2.228014 0
M  V30 50 H -2.351642 2.663471 -3.771958 0
M  V30 51 H -4.008900 1.115884 -4.649508 0
M  V30 52 H -4.283494 -0.423130 -3.872489 0
M  V30 53 H -5.839676 1.928566 -3.541363 0
M  V30 54 H -5.982975 0.441519 -2.601386 0
M  V30 55 H -5.597652 2.452411 -1.112846 0
M  V30 56 H -3.674369 1.400545 0.141117 0
M  V30 57 H -4.835533 0.198474 -0.397518 0
M  V30 58 H -3.366380 -0.851462 -1.741835 0
M  V30 59 H -1.394229 1.017781 -0.351840 0
M  V30 60 H -0.834643 -0.302824 -2.665756 0
M  V30 61 H 0.552352 0.110315 0.456631 0
M  V30 62 H 3.308796 -0.100197 -0.570024 0
M  V30 63 H 1.084230 -1.551363 2.183460 0
M  V30 64 H 1.250741 -3.886316 2.915201 0
M  V30 65 H 2.950757 -5.395386 1.917868 0
M  V30 66 H 4.482462 -4.544130 0.161674 0
M  V30 67 H 4.326458 -2.206293 -0.598944 0
M  V30 68 H 2.373649 0.625648 2.277800 0
M  V30 69 H 3.564552 2.807829 1.362107 0
M  V30 70 H 0.951819 2.665602 -1.175770 0
M  V30 71 H 1.819119 4.192350 -0.794648 0
M  V30 72 H 0.067871 4.047337 -0.473993 0
M  V30 73 H 3.936337 -0.127849 3.829054 0
M  V30 74 H 6.267731 -0.457164 4.550411 0
M  V30 75 H 8.140813 0.037325 3.003501 0
M  V30 76 H 7.672935 0.870031 0.715128 0
M  V30 77 H 5.348292 1.212754 -0.032055 0
M  V30 78 H -1.917243 0.629082 1.855911 0
M  V30 79 H -2.118853 -0.924896 3.759194 0
M  V30 80 H -1.969071 -5.141772 2.211057 0
M  V30 81 H -1.760917 -6.292841 0.036041 0
M  V30 82 H -1.560581 -4.956813 -2.049331 0
M  V30 83 H -1.569055 -2.524903 -1.949386 0
M  V30 END ATOM
M  V30 BEGIN BOND
M  V30 1 2 1 2
M  V30 2 1 2 3
M  V30 3 1 3 4
M  V30 4 1 4 5
M  V30 5 1 5 6
M  V30 6 1 6 7
M  V30 7 1 7 8
M  V30 8 1 8 9
M  V30 9 1 9 10
M  V30 10 1 10 11
M  V30 11 1 11 12
M  V30 12 1 12 13
M  V30 13 2 13 14
M  V30 14 1 13 15
M  V30 15 1 15 16
M  V30 16 1 16 17
M  V30 17 2 17 18
M  V30 18 1 18 19
M  V30 19 2 19 20
M  V30 20 1 20 21
M  V30 21 2 21 22
M  V30 22 1 16 23
M  V30 23 1 23 24
M  V30 24 1 24 25
M  V30 25 1 25 26
M  V30 26 2 25 27
M  V30 27 2 25 28
M  V30 28 1 23 29
M  V30 29 2 29 30
M  V30 30 1 30 31
M  V30 31 2 31 32
M  V30 32 1 32 33
M  V30 33 2 33 34
M  V30 34 1 11 35
M  V30 35 2 35 36
M  V30 36 1 36 37
M  V30 37 2 37 38
M  V30 38 1 38 39
M  V30 39 2 39 40
M  V30 40 1 40 41
M  V30 41 2 41 42
M  V30 42 1 42 43
M  V30 43 2 43 44
M  V30 44 1 8 3
M  V30 45 1 22 17
M  V30 46 1 34 29
M  V30 47 1 44 35
M  V30 48 1 10 5
M  V30 49 1 44 39
M  V30 50 1 1 45
M  V30 51 1 1 46
M  V30 52 1 2 47
M  V30 53 1 3 48 CFG=3
M  V30 54 1 4 49
M  V30 55 1 4 50
M  V30 56 1 6 51
M  V30 57 1 6 52
M  V30 58 1 7 53
M  V30 59 1 7 54
M  V30 60 1 8 55 CFG=1
M  V30 61 1 9 56
M  V30 62 1 9 57
M  V30 63 1 10 58 CFG=3
M  V30 64 1 11 59 CFG=1
M  V30 65 1 12 60
M  V30 66 1 15 61
M  V30 67 1 16 62 CFG=3
M  V30 68 1 18 63
M  V30 69 1 19 64
M  V30 70 1 20 65
M  V30 71 1 21 66
M  V30 72 1 22 67
M  V30 73 1 23 68 CFG=1
M  V30 74 1 24 69
M  V30 75 1 26 70
M  V30 76 1 26 71
M  V30 77 1 26 72
M  V30 78 1 30 73
M  V30 79 1 31 74
M  V30 80 1 32 75
M  V30 81 1 33 76
M  V30 82 1 34 77
M  V30 83 1 36 78
M  V30 84 1 37 79
M  V30 85 1 40 80
M  V30 86 1 41 81
M  V30 87 1 42 82
M  V30 88 1 43 83
M  V30 END BOND
M  V30 END CTAB
M  END
>  <catalyst_id>  (1) 
NHBSHNOBNPNWBO_WTFSXMLRSA_NONE

>  <source_smiles>  (1) 
C=C[C@H]1CN2CC[C@H]1C[C@@H]2[C@H](NC(=S)N[C@H](c1ccccc1)[C@H](NS(C)(=O)=O)c1ccccc1)c1ccnc2ccccc12

>  <axial_configuration>  (1) 
none

>  <inchikey>  (1) 
NHBSHNOBNPNWBO-WTFSXMLRSA-N

>  <build_source>  (1) 
smiles

>  <rdkit_version>  (1) 
2025.09.6

>  <random_seed>  (1) 
42

>  <generated_at>  (1) 
2026-05-19T12:33:34

$$$$
