catalyst325
     RDKit          3D

  0  0  0  0  0  0  0  0  0  0999 V3000
M  V30 BEGIN CTAB
M  V30 COUNTS 39 41 0 0 0
M  V30 BEGIN ATOM
M  V30 1 C -1.593101 -1.559912 2.236309 0
M  V30 2 N -0.952804 -0.686355 1.276399 0
M  V30 3 C 0.432102 -0.687887 1.154025 0
M  V30 4 O 1.228473 -1.120364 1.970578 0
M  V30 5 C 0.743591 -0.096828 -0.215483 0 CFG=2
M  V30 6 C 1.818839 0.992852 -0.151362 0
M  V30 7 C 3.217160 0.447646 -0.332068 0
M  V30 8 C 3.987931 0.069256 0.774078 0
M  V30 9 C 5.272995 -0.446437 0.598110 0
M  V30 10 C 5.799537 -0.589607 -0.684019 0
M  V30 11 C 5.040277 -0.220040 -1.792278 0
M  V30 12 C 3.754335 0.294041 -1.618379 0
M  V30 13 N -0.568912 0.438098 -0.667921 0
M  V30 14 C -1.561164 -0.386147 0.017729 0 CFG=2
M  V30 15 C -2.829435 0.386640 0.169665 0
M  V30 16 C -3.226386 1.289530 1.147107 0
M  V30 17 C -4.521676 1.750496 0.824045 0
M  V30 18 C -4.887230 1.139916 -0.352512 0
M  V30 19 N -3.855401 0.330623 -0.753239 0
M  V30 20 C -3.855555 -0.439746 -1.979037 0
M  V30 21 H -1.642354 -2.569391 1.817007 0
M  V30 22 H -2.599522 -1.204811 2.467282 0
M  V30 23 H -1.006133 -1.593983 3.158870 0
M  V30 24 H 1.027540 -0.918439 -0.884321 0
M  V30 25 H 1.651451 1.735559 -0.943597 0
M  V30 26 H 1.760498 1.551086 0.792349 0
M  V30 27 H 3.589059 0.163120 1.782634 0
M  V30 28 H 5.859919 -0.740785 1.464188 0
M  V30 29 H 6.799816 -0.992059 -0.818549 0
M  V30 30 H 5.449219 -0.333307 -2.792693 0
M  V30 31 H 3.173526 0.575818 -2.493967 0
M  V30 32 H -0.672610 1.372844 -0.271363 0
M  V30 33 H -1.710256 -1.328137 -0.523417 0
M  V30 34 H -2.638065 1.574958 2.010643 0
M  V30 35 H -5.121190 2.455944 1.384694 0
M  V30 36 H -5.793571 1.227664 -0.937761 0
M  V30 37 H -3.850031 -1.500712 -1.717462 0
M  V30 38 H -2.967861 -0.174990 -2.558576 0
M  V30 39 H -4.753013 -0.206154 -2.557708 0
M  V30 END ATOM
M  V30 BEGIN BOND
M  V30 1 1 1 2
M  V30 2 1 2 3
M  V30 3 2 3 4
M  V30 4 1 3 5
M  V30 5 1 5 6
M  V30 6 1 6 7
M  V30 7 2 7 8
M  V30 8 1 8 9
M  V30 9 2 9 10
M  V30 10 1 10 11
M  V30 11 2 11 12
M  V30 12 1 5 13
M  V30 13 1 13 14
M  V30 14 1 14 15
M  V30 15 2 15 16
M  V30 16 1 16 17
M  V30 17 2 17 18
M  V30 18 1 18 19
M  V30 19 1 19 20
M  V30 20 1 14 2
M  V30 21 1 19 15
M  V30 22 1 12 7
M  V30 23 1 1 21
M  V30 24 1 1 22
M  V30 25 1 1 23
M  V30 26 1 5 24 CFG=3
M  V30 27 1 6 25
M  V30 28 1 6 26
M  V30 29 1 8 27
M  V30 30 1 9 28
M  V30 31 1 10 29
M  V30 32 1 11 30
M  V30 33 1 12 31
M  V30 34 1 13 32
M  V30 35 1 14 33 CFG=3
M  V30 36 1 16 34
M  V30 37 1 17 35
M  V30 38 1 18 36
M  V30 39 1 20 37
M  V30 40 1 20 38
M  V30 41 1 20 39
M  V30 END BOND
M  V30 END CTAB
M  END
>  <catalyst_id>  (1) 
SHZVGANSFSLWEN_ZFWWWQNUSA_NONE

>  <source_smiles>  (1) 
CN1C(=O)[C@H](Cc2ccccc2)N[C@@H]1c1cccn1C

>  <axial_configuration>  (1) 
none

>  <inchikey>  (1) 
SHZVGANSFSLWEN-ZFWWWQNUSA-N

>  <build_source>  (1) 
smiles

>  <rdkit_version>  (1) 
2025.09.6

>  <random_seed>  (1) 
42

>  <generated_at>  (1) 
2026-05-19T12:30:04

$$$$
