catalyst99
     RDKit          3D

  0  0  0  0  0  0  0  0  0  0999 V3000
M  V30 BEGIN CTAB
M  V30 COUNTS 67 71 0 0 0
M  V30 BEGIN ATOM
M  V30 1 C -3.979036 -2.288066 -1.072777 0
M  V30 2 C -3.739562 -2.559051 0.216882 0
M  V30 3 C -3.824311 -1.615670 1.398975 0 CFG=1
M  V30 4 C -2.566069 -1.743246 2.303198 0
M  V30 5 N -2.037240 -0.426013 2.729475 0
M  V30 6 C -3.136608 0.300406 3.411768 0
M  V30 7 C -4.298602 0.594952 2.450287 0
M  V30 8 C -4.043326 -0.107403 1.102776 0 CFG=1
M  V30 9 C -2.752040 0.494378 0.513042 0
M  V30 10 C -1.604983 0.389062 1.543546 0 CFG=2
M  V30 11 C -0.203464 -0.036049 0.954738 0 CFG=1
M  V30 12 N -0.213869 -1.242991 0.119992 0
M  V30 13 C 0.845595 -2.026188 -0.273619 0
M  V30 14 S 0.535641 -3.434660 -1.121658 0
M  V30 15 C 2.216620 -1.587908 0.047405 0
M  V30 16 C 2.732631 -1.801989 1.328261 0
M  V30 17 C 4.018903 -1.345646 1.650000 0
M  V30 18 C 4.568346 -1.537423 3.043329 0
M  V30 19 F 4.151269 -2.693991 3.626759 0
M  V30 20 F 5.928555 -1.565982 3.083283 0
M  V30 21 F 4.188023 -0.534333 3.881512 0
M  V30 22 C 4.764389 -0.664005 0.669835 0
M  V30 23 C 4.250217 -0.447486 -0.622150 0
M  V30 24 C 5.073282 0.274261 -1.663312 0
M  V30 25 F 4.335714 0.776768 -2.690489 0
M  V30 26 F 5.767245 1.325982 -1.146675 0
M  V30 27 F 6.003259 -0.540985 -2.232831 0
M  V30 28 C 2.972611 -0.932249 -0.930126 0
M  V30 29 C 0.531425 1.157228 0.333467 0
M  V30 30 C 1.337332 1.900986 1.216338 0
M  V30 31 C 2.046480 2.981846 0.739889 0
M  V30 32 N 2.011817 3.381346 -0.541231 0
M  V30 33 C 1.241719 2.698040 -1.399240 0
M  V30 34 C 1.227820 3.136966 -2.714571 0
M  V30 35 C 0.470648 2.506325 -3.704359 0
M  V30 36 C -0.295437 1.401088 -3.374572 0
M  V30 37 O -1.082953 0.680287 -4.227344 0
M  V30 38 C -1.061985 1.060077 -5.598089 0
M  V30 39 C -0.292454 0.945900 -2.052460 0
M  V30 40 C 0.466039 1.571644 -1.030240 0
M  V30 41 H -3.889569 -3.069495 -1.823454 0
M  V30 42 H -4.276796 -1.306973 -1.426181 0
M  V30 43 H -3.475602 -3.588667 0.464799 0
M  V30 44 H -4.688007 -1.960957 1.986060 0
M  V30 45 H -1.772727 -2.335054 1.836648 0
M  V30 46 H -2.833639 -2.319253 3.200010 0
M  V30 47 H -2.757679 1.236674 3.840104 0
M  V30 48 H -3.494179 -0.285905 4.267815 0
M  V30 49 H -5.241680 0.246305 2.887341 0
M  V30 50 H -4.393191 1.676574 2.295636 0
M  V30 51 H -4.892672 0.055200 0.430802 0
M  V30 52 H -2.920694 1.550545 0.267273 0
M  V30 53 H -2.514481 -0.005559 -0.424538 0
M  V30 54 H -1.446418 1.402737 1.942052 0
M  V30 55 H 0.396640 -0.335142 1.825403 0
M  V30 56 H -1.118752 -1.623631 -0.134951 0
M  V30 57 H 2.129589 -2.318027 2.074621 0
M  V30 58 H 5.761758 -0.292543 0.915100 0
M  V30 59 H 2.552926 -0.775436 -1.923701 0
M  V30 60 H 1.418277 1.638882 2.267870 0
M  V30 61 H 2.680608 3.572566 1.394729 0
M  V30 62 H 1.831676 4.002126 -2.981968 0
M  V30 63 H 0.509468 2.906536 -4.711442 0
M  V30 64 H -1.713203 0.371849 -6.145489 0
M  V30 65 H -0.054517 0.970996 -6.017962 0
M  V30 66 H -1.458662 2.071832 -5.732003 0
M  V30 67 H -0.892116 0.067610 -1.844539 0
M  V30 END ATOM
M  V30 BEGIN BOND
M  V30 1 2 1 2
M  V30 2 1 2 3
M  V30 3 1 3 4
M  V30 4 1 4 5
M  V30 5 1 5 6
M  V30 6 1 6 7
M  V30 7 1 7 8
M  V30 8 1 8 9
M  V30 9 1 9 10
M  V30 10 1 10 11
M  V30 11 1 11 12
M  V30 12 1 12 13
M  V30 13 2 13 14
M  V30 14 1 13 15
M  V30 15 2 15 16
M  V30 16 1 16 17
M  V30 17 1 17 18
M  V30 18 1 18 19
M  V30 19 1 18 20
M  V30 20 1 18 21
M  V30 21 2 17 22
M  V30 22 1 22 23
M  V30 23 1 23 24
M  V30 24 1 24 25
M  V30 25 1 24 26
M  V30 26 1 24 27
M  V30 27 2 23 28
M  V30 28 1 11 29
M  V30 29 2 29 30
M  V30 30 1 30 31
M  V30 31 2 31 32
M  V30 32 1 32 33
M  V30 33 2 33 34
M  V30 34 1 34 35
M  V30 35 2 35 36
M  V30 36 1 36 37
M  V30 37 1 37 38
M  V30 38 1 36 39
M  V30 39 2 39 40
M  V30 40 1 8 3
M  V30 41 1 28 15
M  V30 42 1 40 29
M  V30 43 1 10 5
M  V30 44 1 40 33
M  V30 45 1 1 41
M  V30 46 1 1 42
M  V30 47 1 2 43
M  V30 48 1 3 44 CFG=1
M  V30 49 1 4 45
M  V30 50 1 4 46
M  V30 51 1 6 47
M  V30 52 1 6 48
M  V30 53 1 7 49
M  V30 54 1 7 50
M  V30 55 1 8 51 CFG=3
M  V30 56 1 9 52
M  V30 57 1 9 53
M  V30 58 1 10 54 CFG=1
M  V30 59 1 11 55 CFG=1
M  V30 60 1 12 56
M  V30 61 1 16 57
M  V30 62 1 22 58
M  V30 63 1 28 59
M  V30 64 1 30 60
M  V30 65 1 31 61
M  V30 66 1 34 62
M  V30 67 1 35 63
M  V30 68 1 38 64
M  V30 69 1 38 65
M  V30 70 1 38 66
M  V30 71 1 39 67
M  V30 END BOND
M  V30 END CTAB
M  END
>  <catalyst_id>  (1) 
HXCSYPHJQBUEDA_JTSNXCRFSA_NONE

>  <source_smiles>  (1) 
C=C[C@H]1CN2CC[C@H]1C[C@@H]2[C@@H](NC(=S)c1cc(C(F)(F)F)cc(C(F)(F)F)c1)c1ccnc2ccc(OC)cc12

>  <axial_configuration>  (1) 
none

>  <inchikey>  (1) 
HXCSYPHJQBUEDA-JTSNXCRFSA-N

>  <build_source>  (1) 
smiles

>  <rdkit_version>  (1) 
2025.09.6

>  <random_seed>  (1) 
42

>  <generated_at>  (1) 
2026-05-19T12:31:40

$$$$
