catalyst79
     RDKit          3D

  0  0  0  0  0  0  0  0  0  0999 V3000
M  V30 BEGIN CTAB
M  V30 COUNTS 82 87 0 0 0
M  V30 BEGIN ATOM
M  V30 1 C -4.302279 -6.107482 -0.562389 0
M  V30 2 C -3.505195 -5.045423 -0.737173 0
M  V30 3 C -2.057696 -5.138171 -1.159700 0 CFG=1
M  V30 4 C -1.765917 -4.307163 -2.438399 0
M  V30 5 N -0.680547 -3.311864 -2.221627 0
M  V30 6 C 0.548858 -4.044412 -1.838220 0
M  V30 7 C 0.344437 -4.892500 -0.573855 0
M  V30 8 C -1.085111 -4.680782 -0.043446 0 CFG=1
M  V30 9 C -1.227314 -3.170402 0.222957 0
M  V30 10 C -1.117801 -2.396717 -1.112491 0 CFG=1
M  V30 11 C -0.210481 -1.119759 -0.995132 0 CFG=1
M  V30 12 N 0.193111 -0.643045 -2.329809 0
M  V30 13 C 1.296394 0.126573 -2.608595 0
M  V30 14 S 2.052295 -0.131142 -4.072763 0
M  V30 15 N 1.603743 1.048248 -1.640849 0
M  V30 16 C 2.788221 1.753210 -1.352705 0
M  V30 17 C 4.057202 1.360245 -1.777661 0
M  V30 18 C 5.203227 2.085859 -1.406202 0
M  V30 19 C 6.563025 1.644779 -1.894724 0
M  V30 20 F 6.787270 1.984019 -3.192362 0
M  V30 21 F 6.738887 0.296611 -1.817801 0
M  V30 22 F 7.588400 2.191014 -1.182232 0
M  V30 23 C 5.059718 3.220190 -0.592764 0
M  V30 24 C 3.795199 3.622465 -0.139377 0
M  V30 25 C 3.646562 4.812958 0.777728 0
M  V30 26 F 3.710533 4.456221 2.089564 0
M  V30 27 F 4.618124 5.749667 0.595862 0
M  V30 28 F 2.463320 5.465978 0.619347 0
M  V30 29 C 2.670032 2.871501 -0.516307 0
M  V30 30 C -0.847553 -0.026512 -0.141951 0
M  V30 31 C -0.252248 0.237987 1.105221 0
M  V30 32 C -0.745151 1.252705 1.913349 0
M  V30 33 C -0.127444 1.623997 3.201027 0
M  V30 34 C 1.264042 1.576918 3.401145 0
M  V30 35 C 1.836543 1.940719 4.625677 0
M  V30 36 C 1.032015 2.354101 5.690518 0
M  V30 37 C 1.648162 2.779524 6.989852 0
M  V30 38 C -0.350031 2.428088 5.501609 0
M  V30 39 C -0.918321 2.066934 4.275204 0
M  V30 40 N -1.823606 1.978858 1.545285 0
M  V30 41 C -2.413408 1.740746 0.365061 0
M  V30 42 C -3.507805 2.523333 0.027927 0
M  V30 43 C -4.183510 2.377333 -1.187135 0
M  V30 44 C -3.752663 1.426839 -2.099281 0
M  V30 45 O -4.305367 1.172338 -3.322216 0
M  V30 46 C -5.387991 2.001960 -3.725994 0
M  V30 47 C -2.652431 0.628815 -1.774252 0
M  V30 48 C -1.965953 0.754977 -0.539753 0
M  V30 49 H -3.947489 -7.122564 -0.711768 0
M  V30 50 H -5.338055 -5.980204 -0.261180 0
M  V30 51 H -3.922242 -4.053196 -0.575279 0
M  V30 52 H -1.829353 -6.188887 -1.389781 0
M  V30 53 H -2.663386 -3.791833 -2.804606 0
M  V30 54 H -1.472790 -4.981606 -3.253870 0
M  V30 55 H 1.379945 -3.345120 -1.690960 0
M  V30 56 H 0.863625 -4.689032 -2.668830 0
M  V30 57 H 1.078031 -4.606989 0.189560 0
M  V30 58 H 0.510693 -5.952268 -0.800669 0
M  V30 59 H -1.237668 -5.252402 0.878858 0
M  V30 60 H -2.189821 -2.952452 0.699946 0
M  V30 61 H -0.449960 -2.859609 0.931335 0
M  V30 62 H -2.126555 -2.056806 -1.377491 0
M  V30 63 H 0.733612 -1.423904 -0.522147 0
M  V30 64 H 0.045969 -1.360223 -3.039900 0
M  V30 65 H 0.774769 1.408887 -1.185116 0
M  V30 66 H 4.194833 0.464610 -2.377496 0
M  V30 67 H 5.943250 3.791458 -0.301957 0
M  V30 68 H 1.688889 3.179996 -0.153102 0
M  V30 69 H 0.602791 -0.345619 1.436542 0
M  V30 70 H 1.931240 1.279027 2.595575 0
M  V30 71 H 2.918304 1.906896 4.737259 0
M  V30 72 H 2.556059 2.203310 7.197154 0
M  V30 73 H 0.958783 2.610291 7.823850 0
M  V30 74 H 1.903433 3.842970 6.952830 0
M  V30 75 H -0.998575 2.772472 6.304031 0
M  V30 76 H -1.998791 2.137611 4.157221 0
M  V30 77 H -3.846141 3.279689 0.733745 0
M  V30 78 H -5.031844 3.024370 -1.382158 0
M  V30 79 H -6.249196 1.876127 -3.061425 0
M  V30 80 H -5.082037 3.051873 -3.782603 0
M  V30 81 H -5.692748 1.689024 -4.729320 0
M  V30 82 H -2.331071 -0.096234 -2.518412 0
M  V30 END ATOM
M  V30 BEGIN BOND
M  V30 1 2 1 2
M  V30 2 1 2 3
M  V30 3 1 3 4
M  V30 4 1 4 5
M  V30 5 1 5 6
M  V30 6 1 6 7
M  V30 7 1 7 8
M  V30 8 1 8 9
M  V30 9 1 9 10
M  V30 10 1 10 11
M  V30 11 1 11 12
M  V30 12 1 12 13
M  V30 13 2 13 14
M  V30 14 1 13 15
M  V30 15 1 15 16
M  V30 16 2 16 17
M  V30 17 1 17 18
M  V30 18 1 18 19
M  V30 19 1 19 20
M  V30 20 1 19 21
M  V30 21 1 19 22
M  V30 22 2 18 23
M  V30 23 1 23 24
M  V30 24 1 24 25
M  V30 25 1 25 26
M  V30 26 1 25 27
M  V30 27 1 25 28
M  V30 28 2 24 29
M  V30 29 1 11 30
M  V30 30 2 30 31
M  V30 31 1 31 32
M  V30 32 1 32 33
M  V30 33 2 33 34
M  V30 34 1 34 35
M  V30 35 2 35 36
M  V30 36 1 36 37
M  V30 37 1 36 38
M  V30 38 2 38 39
M  V30 39 2 32 40
M  V30 40 1 40 41
M  V30 41 2 41 42
M  V30 42 1 42 43
M  V30 43 2 43 44
M  V30 44 1 44 45
M  V30 45 1 45 46
M  V30 46 1 44 47
M  V30 47 2 47 48
M  V30 48 1 8 3
M  V30 49 1 29 16
M  V30 50 1 48 30
M  V30 51 1 10 5
M  V30 52 1 39 33
M  V30 53 1 48 41
M  V30 54 1 1 49
M  V30 55 1 1 50
M  V30 56 1 2 51
M  V30 57 1 3 52 CFG=3
M  V30 58 1 4 53
M  V30 59 1 4 54
M  V30 60 1 6 55
M  V30 61 1 6 56
M  V30 62 1 7 57
M  V30 63 1 7 58
M  V30 64 1 8 59 CFG=1
M  V30 65 1 9 60
M  V30 66 1 9 61
M  V30 67 1 10 62 CFG=3
M  V30 68 1 11 63 CFG=1
M  V30 69 1 12 64
M  V30 70 1 15 65
M  V30 71 1 17 66
M  V30 72 1 23 67
M  V30 73 1 29 68
M  V30 74 1 31 69
M  V30 75 1 34 70
M  V30 76 1 35 71
M  V30 77 1 37 72
M  V30 78 1 37 73
M  V30 79 1 37 74
M  V30 80 1 38 75
M  V30 81 1 39 76
M  V30 82 1 42 77
M  V30 83 1 43 78
M  V30 84 1 46 79
M  V30 85 1 46 80
M  V30 86 1 46 81
M  V30 87 1 47 82
M  V30 END BOND
M  V30 END CTAB
M  END
>  <catalyst_id>  (1) 
GIWKWZLOYOTDST_BYBNMVFQSA_NONE

>  <source_smiles>  (1) 
C=C[C@H]1CN2CC[C@H]1C[C@H]2[C@@H](NC(=S)Nc1cc(C(F)(F)F)cc(C(F)(F)F)c1)c1cc(-c2ccc(C)cc2)nc2ccc(OC)cc12

>  <axial_configuration>  (1) 
none

>  <inchikey>  (1) 
GIWKWZLOYOTDST-BYBNMVFQSA-N

>  <build_source>  (1) 
smiles

>  <final_biaryl_angle_deg>  (1) 
35.31

>  <rdkit_version>  (1) 
2025.09.6

>  <random_seed>  (1) 
42

>  <generated_at>  (1) 
2026-05-19T12:33:01

$$$$
