catalyst356
     RDKit          3D

  0  0  0  0  0  0  0  0  0  0999 V3000
M  V30 BEGIN CTAB
M  V30 COUNTS 70 72 0 0 0
M  V30 BEGIN ATOM
M  V30 1 C -2.910783 -0.556560 -2.712158 0
M  V30 2 P -2.585316 0.512029 -1.307237 0 CHG=1
M  V30 3 C -0.821741 0.254245 -0.972293 0
M  V30 4 C -0.463587 -1.124954 -0.394406 0 CFG=2
M  V30 5 C -0.204111 -1.076995 1.128436 0
M  V30 6 C -0.165579 -2.448534 1.762439 0
M  V30 7 C 1.048933 -3.127912 1.923975 0
M  V30 8 C 1.076070 -4.403522 2.489103 0
M  V30 9 C -0.108917 -5.010672 2.900107 0
M  V30 10 C -1.322205 -4.342799 2.746690 0
M  V30 11 C -1.351413 -3.068083 2.179702 0
M  V30 12 N 0.634472 -1.761562 -1.145873 0
M  V30 13 C 1.967019 -1.468580 -1.239951 0
M  V30 14 S 2.909422 -2.611993 -2.010952 0
M  V30 15 N 2.348907 -0.263008 -0.713982 0
M  V30 16 C 3.619646 0.250502 -0.375777 0
M  V30 17 C 3.723434 1.641014 -0.238167 0
M  V30 18 C 4.937228 2.252836 0.117866 0
M  V30 19 C 5.033809 3.756380 0.214448 0
M  V30 20 F 5.972724 4.175039 1.106632 0
M  V30 21 F 5.360520 4.329587 -0.975176 0
M  V30 22 F 3.864781 4.338063 0.602871 0
M  V30 23 C 6.061014 1.446023 0.343077 0
M  V30 24 C 5.970242 0.049292 0.248992 0
M  V30 25 C 7.177564 -0.823570 0.501251 0
M  V30 26 F 7.830578 -1.149391 -0.646586 0
M  V30 27 F 8.104596 -0.226669 1.302218 0
M  V30 28 F 6.867067 -2.000960 1.110069 0
M  V30 29 C 4.741904 -0.534617 -0.110251 0
M  V30 30 C -3.535459 0.071672 0.110464 0
M  V30 31 C -4.345092 -1.068842 0.133911 0
M  V30 32 C -5.085524 -1.393992 1.272488 0
M  V30 33 C -5.023271 -0.582000 2.402129 0
M  V30 34 C -4.224925 0.558354 2.391711 0
M  V30 35 C -3.488502 0.883298 1.252032 0
M  V30 36 C -2.898620 2.175280 -1.822060 0
M  V30 37 C -1.883182 2.997923 -2.322528 0
M  V30 38 C -2.159116 4.304901 -2.731188 0
M  V30 39 C -3.456567 4.803713 -2.649799 0
M  V30 40 C -4.479213 3.993938 -2.164435 0
M  V30 41 C -4.201477 2.688057 -1.757656 0
M  V30 42 Br 0.000000 0.000000 0.000000 0 CHG=-1
M  V30 43 H -2.288764 -0.262706 -3.562867 0
M  V30 44 H -2.691603 -1.602153 -2.480984 0
M  V30 45 H -3.959146 -0.482304 -3.015324 0
M  V30 46 H -0.489600 1.049383 -0.294867 0
M  V30 47 H -0.306340 0.408251 -1.927459 0
M  V30 48 H -1.315233 -1.792542 -0.569197 0
M  V30 49 H -0.989828 -0.497193 1.625501 0
M  V30 50 H 0.728154 -0.548047 1.357284 0
M  V30 51 H 1.983236 -2.669995 1.607011 0
M  V30 52 H 2.023228 -4.923614 2.607049 0
M  V30 53 H -0.085996 -6.003715 3.340853 0
M  V30 54 H -2.246571 -4.814108 3.069726 0
M  V30 55 H -2.305985 -2.558635 2.070159 0
M  V30 56 H 0.431653 -2.698751 -1.482513 0
M  V30 57 H 1.608750 0.420765 -0.704164 0
M  V30 58 H 2.855889 2.273269 -0.425207 0
M  V30 59 H 7.013955 1.908294 0.607061 0
M  V30 60 H 4.687242 -1.619403 -0.139363 0
M  V30 61 H -4.413347 -1.718373 -0.734283 0
M  V30 62 H -5.712898 -2.281870 1.276503 0
M  V30 63 H -5.600400 -0.834619 3.287769 0
M  V30 64 H -4.179131 1.198642 3.268918 0
M  V30 65 H -2.876912 1.783305 1.254105 0
M  V30 66 H -0.864879 2.632391 -2.409927 0
M  V30 67 H -1.360848 4.933170 -3.118091 0
M  V30 68 H -3.671358 5.820044 -2.968858 0
M  V30 69 H -5.494729 4.376370 -2.103577 0
M  V30 70 H -5.013869 2.067214 -1.385393 0
M  V30 END ATOM
M  V30 BEGIN BOND
M  V30 1 1 1 2
M  V30 2 1 2 3
M  V30 3 1 3 4
M  V30 4 1 4 5
M  V30 5 1 5 6
M  V30 6 2 6 7
M  V30 7 1 7 8
M  V30 8 2 8 9
M  V30 9 1 9 10
M  V30 10 2 10 11
M  V30 11 1 4 12
M  V30 12 1 12 13
M  V30 13 2 13 14
M  V30 14 1 13 15
M  V30 15 1 15 16
M  V30 16 2 16 17
M  V30 17 1 17 18
M  V30 18 1 18 19
M  V30 19 1 19 20
M  V30 20 1 19 21
M  V30 21 1 19 22
M  V30 22 2 18 23
M  V30 23 1 23 24
M  V30 24 1 24 25
M  V30 25 1 25 26
M  V30 26 1 25 27
M  V30 27 1 25 28
M  V30 28 2 24 29
M  V30 29 1 2 30
M  V30 30 2 30 31
M  V30 31 1 31 32
M  V30 32 2 32 33
M  V30 33 1 33 34
M  V30 34 2 34 35
M  V30 35 1 2 36
M  V30 36 2 36 37
M  V30 37 1 37 38
M  V30 38 2 38 39
M  V30 39 1 39 40
M  V30 40 2 40 41
M  V30 41 1 11 6
M  V30 42 1 29 16
M  V30 43 1 35 30
M  V30 44 1 41 36
M  V30 45 1 1 43
M  V30 46 1 1 44
M  V30 47 1 1 45
M  V30 48 1 3 46
M  V30 49 1 3 47
M  V30 50 1 4 48 CFG=1
M  V30 51 1 5 49
M  V30 52 1 5 50
M  V30 53 1 7 51
M  V30 54 1 8 52
M  V30 55 1 9 53
M  V30 56 1 10 54
M  V30 57 1 11 55
M  V30 58 1 12 56
M  V30 59 1 15 57
M  V30 60 1 17 58
M  V30 61 1 23 59
M  V30 62 1 29 60
M  V30 63 1 31 61
M  V30 64 1 32 62
M  V30 65 1 33 63
M  V30 66 1 34 64
M  V30 67 1 35 65
M  V30 68 1 37 66
M  V30 69 1 38 67
M  V30 70 1 39 68
M  V30 71 1 40 69
M  V30 72 1 41 70
M  V30 END BOND
M  V30 END CTAB
M  END
>  <catalyst_id>  (1) 
UNPZSRLHQQTUAX_SNYZSRNZSA_NONE

>  <source_smiles>  (1) 
C[P+](C[C@H](Cc1ccccc1)NC(=S)Nc1cc(C(F)(F)F)cc(C(F)(F)F)c1)(c1ccccc1)c1ccccc1.[Br-]

>  <axial_configuration>  (1) 
none

>  <inchikey>  (1) 
UNPZSRLHQQTUAX-SNYZSRNZSA-N

>  <build_source>  (1) 
smiles

>  <rdkit_version>  (1) 
2025.09.6

>  <random_seed>  (1) 
42

>  <generated_at>  (1) 
2026-05-19T12:37:06

$$$$
