catalyst4
     RDKit          3D

  0  0  0  0  0  0  0  0  0  0999 V3000
M  V30 BEGIN CTAB
M  V30 COUNTS 59 61 0 0 0
M  V30 BEGIN ATOM
M  V30 1 C -2.714279 2.459263 2.464678 0
M  V30 2 N -2.803374 2.738603 1.028126 0
M  V30 3 C -2.628922 4.142326 0.659016 0
M  V30 4 C -2.368483 1.739859 0.144561 0
M  V30 5 C -1.907668 2.021198 -1.142505 0
M  V30 6 C -1.480340 0.988329 -1.962720 0
M  V30 7 N -1.467964 -0.308867 -1.603859 0
M  V30 8 C -1.920888 -0.610425 -0.375126 0
M  V30 9 N -1.952552 -1.942148 0.071029 0
M  V30 10 C -1.190798 -2.923123 -0.722718 0 CFG=2
M  V30 11 C -1.929790 -4.268718 -0.600121 0
M  V30 12 C -1.207869 -5.386108 -1.346104 0
M  V30 13 C 0.235443 -5.529344 -0.879145 0
M  V30 14 C 0.991850 -4.209182 -0.982813 0
M  V30 15 C 0.282332 -3.079125 -0.217180 0 CFG=1
M  V30 16 N 1.088270 -1.853761 -0.387924 0
M  V30 17 C 1.193456 -0.908748 0.529927 0
M  V30 18 C 1.725137 0.357771 0.610483 0
M  V30 19 N 2.388960 1.147670 -0.213745 0
M  V30 20 C 2.833022 2.531358 0.010146 0
M  V30 21 C 3.531534 3.004964 -1.282039 0
M  V30 22 C 3.853941 2.600501 1.152434 0
M  V30 23 C 1.636688 3.456423 0.268125 0
M  V30 24 C 1.250349 0.518242 2.010479 0
M  V30 25 O 1.256838 1.321674 2.912923 0
M  V30 26 C 0.661084 -0.834374 1.910690 0
M  V30 27 O -0.023599 -1.492350 2.657682 0
M  V30 28 C -2.405085 0.379213 0.487757 0
M  V30 29 H -2.989335 3.339291 3.057098 0
M  V30 30 H -1.694574 2.176478 2.749034 0
M  V30 31 H -3.411677 1.668493 2.759576 0
M  V30 32 H -3.084773 4.802698 1.405424 0
M  V30 33 H -3.129663 4.369864 -0.288304 0
M  V30 34 H -1.567099 4.401939 0.586317 0
M  V30 35 H -1.862181 3.029291 -1.533873 0
M  V30 36 H -1.120539 1.192127 -2.966692 0
M  V30 37 H -1.698001 -1.983198 1.057935 0
M  V30 38 H -1.184950 -2.659904 -1.788656 0
M  V30 39 H -2.949000 -4.169902 -0.994246 0
M  V30 40 H -2.032518 -4.545000 0.457811 0
M  V30 41 H -1.739105 -6.332632 -1.195316 0
M  V30 42 H -1.225841 -5.177854 -2.422923 0
M  V30 43 H 0.742798 -6.292819 -1.479597 0
M  V30 44 H 0.251013 -5.878517 0.160621 0
M  V30 45 H 2.008463 -4.342696 -0.592396 0
M  V30 46 H 1.100047 -3.934128 -2.040381 0
M  V30 47 H 0.269328 -3.362016 0.843774 0
M  V30 48 H 1.129473 -1.563409 -1.366632 0
M  V30 49 H 2.586906 0.802602 -1.152719 0
M  V30 50 H 4.391941 2.369418 -1.522981 0
M  V30 51 H 2.848312 2.966062 -2.138831 0
M  V30 52 H 3.891602 4.035572 -1.186978 0
M  V30 53 H 4.270544 3.609872 1.247023 0
M  V30 54 H 4.686961 1.909138 0.979687 0
M  V30 55 H 3.414827 2.343673 2.119296 0
M  V30 56 H 0.905862 3.391228 -0.545841 0
M  V30 57 H 1.957370 4.501580 0.345582 0
M  V30 58 H 1.112156 3.211490 1.195164 0
M  V30 59 H -2.805639 0.060142 1.443236 0
M  V30 END ATOM
M  V30 BEGIN BOND
M  V30 1 1 1 2
M  V30 2 1 2 3
M  V30 3 1 2 4
M  V30 4 2 4 5
M  V30 5 1 5 6
M  V30 6 2 6 7
M  V30 7 1 7 8
M  V30 8 1 8 9
M  V30 9 1 9 10
M  V30 10 1 10 11
M  V30 11 1 11 12
M  V30 12 1 12 13
M  V30 13 1 13 14
M  V30 14 1 14 15
M  V30 15 1 15 16
M  V30 16 1 16 17
M  V30 17 2 17 18
M  V30 18 1 18 19
M  V30 19 1 19 20
M  V30 20 1 20 21
M  V30 21 1 20 22
M  V30 22 1 20 23
M  V30 23 1 18 24
M  V30 24 2 24 25
M  V30 25 1 24 26
M  V30 26 2 26 27
M  V30 27 2 8 28
M  V30 28 1 28 4
M  V30 29 1 15 10
M  V30 30 1 26 17
M  V30 31 1 1 29
M  V30 32 1 1 30
M  V30 33 1 1 31
M  V30 34 1 3 32
M  V30 35 1 3 33
M  V30 36 1 3 34
M  V30 37 1 5 35
M  V30 38 1 6 36
M  V30 39 1 9 37
M  V30 40 1 10 38 CFG=3
M  V30 41 1 11 39
M  V30 42 1 11 40
M  V30 43 1 12 41
M  V30 44 1 12 42
M  V30 45 1 13 43
M  V30 46 1 13 44
M  V30 47 1 14 45
M  V30 48 1 14 46
M  V30 49 1 15 47 CFG=1
M  V30 50 1 16 48
M  V30 51 1 19 49
M  V30 52 1 21 50
M  V30 53 1 21 51
M  V30 54 1 21 52
M  V30 55 1 22 53
M  V30 56 1 22 54
M  V30 57 1 22 55
M  V30 58 1 23 56
M  V30 59 1 23 57
M  V30 60 1 23 58
M  V30 61 1 28 59
M  V30 END BOND
M  V30 END CTAB
M  END
>  <catalyst_id>  (1) 
AIFNPOXWWSPSQQ_HUUCEWRRSA_NONE

>  <source_smiles>  (1) 
CN(C)c1ccnc(N[C@@H]2CCCC[C@H]2Nc2c(NC(C)(C)C)c(=O)c2=O)c1

>  <axial_configuration>  (1) 
none

>  <inchikey>  (1) 
AIFNPOXWWSPSQQ-HUUCEWRRSA-N

>  <build_source>  (1) 
smiles

>  <rdkit_version>  (1) 
2025.09.6

>  <random_seed>  (1) 
42

>  <generated_at>  (1) 
2026-05-19T12:37:15

$$$$
