catalyst257
     RDKit          3D

  0  0  0  0  0  0  0  0  0  0999 V3000
M  V30 BEGIN CTAB
M  V30 COUNTS 76 81 0 0 0
M  V30 BEGIN ATOM
M  V30 1 C -1.896067 -4.809482 -2.529346 0
M  V30 2 C -1.273977 -4.532466 -1.375932 0
M  V30 3 C -1.758401 -3.647132 -0.247005 0 CFG=1
M  V30 4 C -0.649262 -2.649496 0.190666 0
M  V30 5 N -1.187056 -1.302404 0.523156 0
M  V30 6 C -2.290932 -1.477055 1.497910 0
M  V30 7 C -3.474180 -2.241281 0.882154 0
M  V30 8 C -3.056015 -2.830428 -0.479696 0 CFG=1
M  V30 9 C -2.750314 -1.645573 -1.417052 0
M  V30 10 C -1.762022 -0.677456 -0.724140 0 CFG=2
M  V30 11 C -0.651276 -0.148890 -1.712269 0 CFG=2
M  V30 12 N 0.458234 0.427909 -0.933959 0
M  V30 13 C 1.685103 0.595742 -1.384339 0
M  V30 14 C 2.896348 1.002295 -0.879287 0
M  V30 15 N 3.423949 1.424978 0.250849 0
M  V30 16 C 2.682821 1.665456 1.474910 0
M  V30 17 C 3.037847 0.611216 2.496843 0
M  V30 18 C 4.066939 0.833037 3.424019 0
M  V30 19 C 4.412811 -0.144996 4.370471 0
M  V30 20 C 5.534523 0.100778 5.352801 0
M  V30 21 F 5.345791 -0.532606 6.543529 0
M  V30 22 F 5.699966 1.418639 5.654755 0
M  V30 23 F 6.736055 -0.331112 4.882871 0
M  V30 24 C 3.726093 -1.370335 4.363989 0
M  V30 25 C 2.700828 -1.620363 3.438200 0
M  V30 26 C 1.961753 -2.937444 3.423009 0
M  V30 27 F 0.626616 -2.790147 3.648173 0
M  V30 28 F 2.401872 -3.818204 4.364423 0
M  V30 29 F 2.070876 -3.584479 2.229375 0
M  V30 30 C 2.367672 -0.621385 2.509510 0
M  V30 31 C 3.568024 0.808077 -2.189989 0
M  V30 32 O 4.667439 0.928127 -2.671739 0
M  V30 33 C 2.267392 0.350500 -2.730725 0
M  V30 34 O 1.934064 -0.082890 -3.807041 0
M  V30 35 C -1.197879 0.853348 -2.724998 0
M  V30 36 C -1.265648 0.432270 -4.062025 0
M  V30 37 C -1.777117 1.290179 -5.012595 0
M  V30 38 N -2.234860 2.523575 -4.733596 0
M  V30 39 C -2.164797 2.951822 -3.465196 0
M  V30 40 C -2.625500 4.233459 -3.200993 0
M  V30 41 C -2.596201 4.789054 -1.918591 0
M  V30 42 C -2.088665 4.047319 -0.863822 0
M  V30 43 O -1.990320 4.454480 0.437224 0
M  V30 44 C -2.435415 5.773089 0.732092 0
M  V30 45 C -1.622468 2.753351 -1.112143 0
M  V30 46 C -1.651080 2.168328 -2.405211 0
M  V30 47 H -1.438995 -5.479870 -3.252415 0
M  V30 48 H -2.865940 -4.400300 -2.789458 0
M  V30 49 H -0.313237 -5.018735 -1.199970 0
M  V30 50 H -1.946119 -4.327059 0.597061 0
M  V30 51 H -0.142637 -3.051585 1.076546 0
M  V30 52 H 0.139181 -2.557142 -0.565955 0
M  V30 53 H -2.626789 -0.497177 1.858955 0
M  V30 54 H -1.919330 -2.004594 2.385609 0
M  V30 55 H -3.793053 -3.040898 1.561010 0
M  V30 56 H -4.329906 -1.568052 0.749984 0
M  V30 57 H -3.864458 -3.450179 -0.881250 0
M  V30 58 H -2.354476 -2.007888 -2.370790 0
M  V30 59 H -3.679941 -1.109423 -1.645742 0
M  V30 60 H -2.339748 0.191843 -0.385477 0
M  V30 61 H -0.249777 -1.021563 -2.245240 0
M  V30 62 H 0.289501 0.283072 0.065001 0
M  V30 63 H 4.422682 1.617276 0.327134 0
M  V30 64 H 2.945742 2.657969 1.860578 0
M  V30 65 H 1.598183 1.687710 1.318109 0
M  V30 66 H 4.607678 1.779978 3.411845 0
M  V30 67 H 3.998074 -2.139746 5.088908 0
M  V30 68 H 1.579290 -0.812142 1.780981 0
M  V30 69 H -0.908411 -0.546634 -4.369158 0
M  V30 70 H -1.833571 0.998772 -6.057504 0
M  V30 71 H -3.019687 4.824516 -4.025375 0
M  V30 72 H -2.972941 5.797754 -1.790581 0
M  V30 73 H -3.505119 5.883581 0.525745 0
M  V30 74 H -2.283195 5.945561 1.801902 0
M  V30 75 H -1.847681 6.519391 0.187359 0
M  V30 76 H -1.218884 2.204164 -0.266484 0
M  V30 END ATOM
M  V30 BEGIN BOND
M  V30 1 2 1 2
M  V30 2 1 2 3
M  V30 3 1 3 4
M  V30 4 1 4 5
M  V30 5 1 5 6
M  V30 6 1 6 7
M  V30 7 1 7 8
M  V30 8 1 8 9
M  V30 9 1 9 10
M  V30 10 1 10 11
M  V30 11 1 11 12
M  V30 12 1 12 13
M  V30 13 2 13 14
M  V30 14 1 14 15
M  V30 15 1 15 16
M  V30 16 1 16 17
M  V30 17 2 17 18
M  V30 18 1 18 19
M  V30 19 1 19 20
M  V30 20 1 20 21
M  V30 21 1 20 22
M  V30 22 1 20 23
M  V30 23 2 19 24
M  V30 24 1 24 25
M  V30 25 1 25 26
M  V30 26 1 26 27
M  V30 27 1 26 28
M  V30 28 1 26 29
M  V30 29 2 25 30
M  V30 30 1 14 31
M  V30 31 2 31 32
M  V30 32 1 31 33
M  V30 33 2 33 34
M  V30 34 1 11 35
M  V30 35 2 35 36
M  V30 36 1 36 37
M  V30 37 2 37 38
M  V30 38 1 38 39
M  V30 39 2 39 40
M  V30 40 1 40 41
M  V30 41 2 41 42
M  V30 42 1 42 43
M  V30 43 1 43 44
M  V30 44 1 42 45
M  V30 45 2 45 46
M  V30 46 1 8 3
M  V30 47 1 33 13
M  V30 48 1 46 35
M  V30 49 1 10 5
M  V30 50 1 30 17
M  V30 51 1 46 39
M  V30 52 1 1 47
M  V30 53 1 1 48
M  V30 54 1 2 49
M  V30 55 1 3 50 CFG=1
M  V30 56 1 4 51
M  V30 57 1 4 52
M  V30 58 1 6 53
M  V30 59 1 6 54
M  V30 60 1 7 55
M  V30 61 1 7 56
M  V30 62 1 8 57 CFG=3
M  V30 63 1 9 58
M  V30 64 1 9 59
M  V30 65 1 10 60 CFG=1
M  V30 66 1 11 61 CFG=3
M  V30 67 1 12 62
M  V30 68 1 15 63
M  V30 69 1 16 64
M  V30 70 1 16 65
M  V30 71 1 18 66
M  V30 72 1 24 67
M  V30 73 1 30 68
M  V30 74 1 36 69
M  V30 75 1 37 70
M  V30 76 1 40 71
M  V30 77 1 41 72
M  V30 78 1 44 73
M  V30 79 1 44 74
M  V30 80 1 44 75
M  V30 81 1 45 76
M  V30 END BOND
M  V30 END CTAB
M  END
>  <catalyst_id>  (1) 
PKQBGWDNBVWQDJ_CPAHJZNRSA_NONE

>  <source_smiles>  (1) 
C=C[C@H]1CN2CC[C@H]1C[C@@H]2[C@H](Nc1c(NCc2cc(C(F)(F)F)cc(C(F)(F)F)c2)c(=O)c1=O)c1ccnc2ccc(OC)cc12

>  <axial_configuration>  (1) 
none

>  <inchikey>  (1) 
PKQBGWDNBVWQDJ-CPAHJZNRSA-N

>  <build_source>  (1) 
smiles

>  <rdkit_version>  (1) 
2025.09.6

>  <random_seed>  (1) 
42

>  <generated_at>  (1) 
2026-05-19T12:34:11

$$$$
