catalyst420
     RDKit          3D

  0  0  0  0  0  0  0  0  0  0999 V3000
M  V30 BEGIN CTAB
M  V30 COUNTS 112 121 0 0 0
M  V30 BEGIN ATOM
M  V30 1 C 3.917426 0.503546 3.887326 0
M  V30 2 C 3.726582 -0.461725 2.726384 0
M  V30 3 C 4.854248 -0.381235 1.682340 0 CFG=1
M  V30 4 C 4.673099 -1.448628 0.567333 0
M  V30 5 N 4.539882 -0.823215 -0.778438 0
M  V30 6 C 5.816519 -0.122743 -1.060577 0
M  V30 7 C 6.186254 0.892203 0.029074 0
M  V30 8 C 5.013083 1.009668 1.014237 0 CFG=1
M  V30 9 C 3.777113 1.364230 0.163711 0
M  V30 10 C 3.390393 0.143196 -0.697655 0 CFG=1
M  V30 11 C 2.616575 0.471860 -2.031938 0 CFG=2
M  V30 12 O 2.133901 -0.767177 -2.618099 0
M  V30 13 C 0.997767 -1.247819 -2.005884 0
M  V30 14 N -0.041184 -0.396104 -1.853764 0
M  V30 15 N -1.174899 -0.834069 -1.256973 0
M  V30 16 C -1.245567 -2.107653 -0.807190 0
M  V30 17 O -2.402114 -2.515206 -0.170790 0
M  V30 18 C -2.998989 -1.490014 0.656941 0 CFG=2
M  V30 19 C -2.254062 -1.460932 1.994876 0
M  V30 20 C -2.362881 -2.571636 2.845691 0
M  V30 21 C -1.685919 -2.567625 4.046994 0
M  V30 22 N -0.901190 -1.556663 4.458062 0
M  V30 23 C -0.768981 -0.493589 3.652345 0
M  V30 24 C 0.055500 0.529935 4.090756 0
M  V30 25 C 0.289342 1.670478 3.322599 0
M  V30 26 C -0.315846 1.809354 2.082620 0
M  V30 27 O 0.001725 2.957459 1.413255 0
M  V30 28 C -0.605212 3.155756 0.141434 0
M  V30 29 C -1.166483 0.798341 1.632409 0
M  V30 30 C -1.413740 -0.377313 2.396325 0
M  V30 31 C -4.527781 -1.837079 0.782590 0 CFG=2
M  V30 32 C -5.223251 -1.793767 -0.606086 0
M  V30 33 C -6.511810 -0.959102 -0.515908 0 CFG=2
M  V30 34 C -6.088847 0.455014 -0.079186 0
M  V30 35 C -5.422679 0.380732 1.301932 0
M  V30 36 N -5.289931 -1.014529 1.771275 0
M  V30 37 C -6.645365 -1.598125 1.910551 0
M  V30 38 C -7.442085 -1.521503 0.586209 0 CFG=2
M  V30 39 C -8.068823 -2.869661 0.192793 0
M  V30 40 C -9.176323 -3.300379 1.145928 0
M  V30 41 C -0.221674 -3.044433 -0.994185 0
M  V30 42 C -0.299109 -4.390934 -0.570713 0
M  V30 43 C 0.766133 -5.270446 -0.768628 0
M  V30 44 C 1.928038 -4.822921 -1.387005 0
M  V30 45 C 2.023539 -3.496937 -1.809609 0
M  V30 46 C 0.953106 -2.593622 -1.623272 0
M  V30 47 C 3.389108 1.213300 -3.121646 0
M  V30 48 C 4.147458 0.467757 -4.038298 0
M  V30 49 C 4.844151 1.124187 -5.030777 0
M  V30 50 N 4.841269 2.460427 -5.184154 0
M  V30 51 C 4.107261 3.191006 -4.332855 0
M  V30 52 C 4.100280 4.566036 -4.516984 0
M  V30 53 C 3.363851 5.426521 -3.697491 0
M  V30 54 C 2.608609 4.902755 -2.660500 0
M  V30 55 O 1.838223 5.611757 -1.782449 0
M  V30 56 C 1.828919 7.026291 -1.932289 0
M  V30 57 C 2.605249 3.519741 -2.458404 0
M  V30 58 C 3.350144 2.630678 -3.276325 0
M  V30 59 H 3.174569 0.307031 4.666438 0
M  V30 60 H 3.795439 1.542519 3.567693 0
M  V30 61 H 4.910041 0.391152 4.334602 0
M  V30 62 H 2.749050 -0.283882 2.266055 0
M  V30 63 H 3.696185 -1.480971 3.131764 0
M  V30 64 H 5.793913 -0.610936 2.204992 0
M  V30 65 H 3.803320 -2.089200 0.761010 0
M  V30 66 H 5.533453 -2.130906 0.565133 0
M  V30 67 H 5.786435 0.382649 -2.026390 0
M  V30 68 H 6.620906 -0.862981 -1.159661 0
M  V30 69 H 7.094421 0.573308 0.554447 0
M  V30 70 H 6.401785 1.866637 -0.425507 0
M  V30 71 H 5.223207 1.794266 1.747459 0
M  V30 72 H 4.014964 2.236876 -0.449971 0
M  V30 73 H 2.936776 1.644908 0.808935 0
M  V30 74 H 2.623473 -0.385667 -0.112731 0
M  V30 75 H 1.752329 1.090220 -1.772220 0
M  V30 76 H -2.969093 -0.518389 0.159449 0
M  V30 77 H -2.966139 -3.433790 2.583837 0
M  V30 78 H -1.756920 -3.406979 4.732495 0
M  V30 79 H 0.540365 0.434276 5.059582 0
M  V30 80 H 0.950664 2.447126 3.697426 0
M  V30 81 H -0.257947 4.117431 -0.247672 0
M  V30 82 H -1.695628 3.206364 0.227697 0
M  V30 83 H -0.298967 2.379111 -0.566449 0
M  V30 84 H -1.639673 0.913756 0.666153 0
M  V30 85 H -4.580883 -2.883922 1.114235 0
M  V30 86 H -5.450554 -2.812419 -0.940334 0
M  V30 87 H -4.566826 -1.354785 -1.367527 0
M  V30 88 H -7.019340 -0.921274 -1.485731 0
M  V30 89 H -5.391692 0.882475 -0.809931 0
M  V30 90 H -6.961880 1.117048 -0.039080 0
M  V30 91 H -6.009706 0.956713 2.028814 0
M  V30 92 H -4.444302 0.873290 1.275414 0
M  V30 93 H -7.191583 -1.063094 2.698113 0
M  V30 94 H -6.555150 -2.629697 2.272534 0
M  V30 95 H -8.262321 -0.801988 0.721409 0
M  V30 96 H -8.493416 -2.791970 -0.815356 0
M  V30 97 H -7.306931 -3.656525 0.158302 0
M  V30 98 H -9.619222 -4.241975 0.805886 0
M  V30 99 H -8.797640 -3.455920 2.160356 0
M  V30 100 H -9.971330 -2.548997 1.187044 0
M  V30 101 H -1.197570 -4.758560 -0.078464 0
M  V30 102 H 0.689203 -6.302324 -0.435213 0
M  V30 103 H 2.764077 -5.501427 -1.537247 0
M  V30 104 H 2.947245 -3.159274 -2.278700 0
M  V30 105 H 4.206718 -0.614949 -3.970783 0
M  V30 106 H 5.444585 0.574661 -5.749764 0
M  V30 107 H 4.687245 4.984440 -5.332283 0
M  V30 108 H 3.405686 6.490048 -3.904986 0
M  V30 109 H 1.412849 7.317078 -2.902511 0
M  V30 110 H 2.830517 7.445177 -1.789350 0
M  V30 111 H 1.180411 7.440269 -1.154182 0
M  V30 112 H 2.004882 3.148526 -1.633149 0
M  V30 END ATOM
M  V30 BEGIN BOND
M  V30 1 1 1 2
M  V30 2 1 2 3
M  V30 3 1 3 4
M  V30 4 1 4 5
M  V30 5 1 5 6
M  V30 6 1 6 7
M  V30 7 1 7 8
M  V30 8 1 8 9
M  V30 9 1 9 10
M  V30 10 1 10 11
M  V30 11 1 11 12
M  V30 12 1 12 13
M  V30 13 2 13 14
M  V30 14 1 14 15
M  V30 15 2 15 16
M  V30 16 1 16 17
M  V30 17 1 17 18
M  V30 18 1 18 19
M  V30 19 2 19 20
M  V30 20 1 20 21
M  V30 21 2 21 22
M  V30 22 1 22 23
M  V30 23 2 23 24
M  V30 24 1 24 25
M  V30 25 2 25 26
M  V30 26 1 26 27
M  V30 27 1 27 28
M  V30 28 1 26 29
M  V30 29 2 29 30
M  V30 30 1 18 31
M  V30 31 1 31 32
M  V30 32 1 32 33
M  V30 33 1 33 34
M  V30 34 1 34 35
M  V30 35 1 35 36
M  V30 36 1 36 37
M  V30 37 1 37 38
M  V30 38 1 38 39
M  V30 39 1 39 40
M  V30 40 1 16 41
M  V30 41 2 41 42
M  V30 42 1 42 43
M  V30 43 2 43 44
M  V30 44 1 44 45
M  V30 45 2 45 46
M  V30 46 1 11 47
M  V30 47 2 47 48
M  V30 48 1 48 49
M  V30 49 2 49 50
M  V30 50 1 50 51
M  V30 51 2 51 52
M  V30 52 1 52 53
M  V30 53 2 53 54
M  V30 54 1 54 55
M  V30 55 1 55 56
M  V30 56 1 54 57
M  V30 57 2 57 58
M  V30 58 1 8 3
M  V30 59 1 46 13
M  V30 60 1 58 47
M  V30 61 1 10 5
M  V30 62 1 30 19
M  V30 63 1 36 31
M  V30 64 1 46 41
M  V30 65 1 58 51
M  V30 66 1 30 23
M  V30 67 1 38 33
M  V30 68 1 1 59
M  V30 69 1 1 60
M  V30 70 1 1 61
M  V30 71 1 2 62
M  V30 72 1 2 63
M  V30 73 1 3 64 CFG=1
M  V30 74 1 4 65
M  V30 75 1 4 66
M  V30 76 1 6 67
M  V30 77 1 6 68
M  V30 78 1 7 69
M  V30 79 1 7 70
M  V30 80 1 8 71 CFG=1
M  V30 81 1 9 72
M  V30 82 1 9 73
M  V30 83 1 10 74 CFG=1
M  V30 84 1 11 75 CFG=1
M  V30 85 1 18 76 CFG=3
M  V30 86 1 20 77
M  V30 87 1 21 78
M  V30 88 1 24 79
M  V30 89 1 25 80
M  V30 90 1 28 81
M  V30 91 1 28 82
M  V30 92 1 28 83
M  V30 93 1 29 84
M  V30 94 1 31 85 CFG=1
M  V30 95 1 32 86
M  V30 96 1 32 87
M  V30 97 1 33 88 CFG=3
M  V30 98 1 34 89
M  V30 99 1 34 90
M  V30 100 1 35 91
M  V30 101 1 35 92
M  V30 102 1 37 93
M  V30 103 1 37 94
M  V30 104 1 38 95 CFG=1
M  V30 105 1 39 96
M  V30 106 1 39 97
M  V30 107 1 40 98
M  V30 108 1 40 99
M  V30 109 1 40 100
M  V30 110 1 42 101
M  V30 111 1 43 102
M  V30 112 1 44 103
M  V30 113 1 45 104
M  V30 114 1 48 105
M  V30 115 1 49 106
M  V30 116 1 52 107
M  V30 117 1 53 108
M  V30 118 1 56 109
M  V30 119 1 56 110
M  V30 120 1 56 111
M  V30 121 1 57 112
M  V30 END BOND
M  V30 END CTAB
M  END
>  <catalyst_id>  (1) 
YUCBLVFHJWOYDN_PDNPBWJSSA_NONE

>  <source_smiles>  (1) 
CC[C@H]1CN2CC[C@H]1C[C@H]2[C@H](Oc1nnc(O[C@H](c2ccnc3ccc(OC)cc23)[C@@H]2C[C@@H]3CCN2C[C@@H]3CC)c2ccccc12)c1ccnc2ccc(OC)cc12

>  <axial_configuration>  (1) 
none

>  <inchikey>  (1) 
YUCBLVFHJWOYDN-PDNPBWJSSA-N

>  <build_source>  (1) 
smiles

>  <rdkit_version>  (1) 
2025.09.6

>  <random_seed>  (1) 
42

>  <generated_at>  (1) 
2026-05-19T12:33:57

$$$$
