catalyst331
     RDKit          3D

  0  0  0  0  0  0  0  0  0  0999 V3000
M  V30 BEGIN CTAB
M  V30 COUNTS 78 86 0 0 0
M  V30 BEGIN ATOM
M  V30 1 O -0.685812 0.698840 -2.101097 0
M  V30 2 P -0.395081 0.448685 -0.654346 0
M  V30 3 O -0.910051 1.661808 0.268843 0
M  V30 4 O 1.155148 0.291877 -0.245049 0
M  V30 5 C 1.745564 -0.931088 -0.480222 0
M  V30 6 C 2.728632 -0.981669 -1.482324 0
M  V30 7 C 3.126480 0.202378 -2.252624 0
M  V30 8 C 4.233077 0.968793 -1.864612 0
M  V30 9 C 4.616938 2.096346 -2.599617 0
M  V30 10 C 3.906009 2.492630 -3.742823 0
M  V30 11 C 4.305067 3.683146 -4.511670 0
M  V30 12 C 5.620399 3.835706 -4.981380 0
M  V30 13 C 5.999152 4.965736 -5.711589 0
M  V30 14 C 5.067597 5.964236 -5.983987 0
M  V30 15 C 3.758654 5.833588 -5.527426 0
M  V30 16 C 3.381546 4.702440 -4.798336 0
M  V30 17 C 2.798994 1.720395 -4.126566 0
M  V30 18 C 2.415902 0.590853 -3.394583 0
M  V30 19 C 3.347359 -2.207138 -1.731994 0
M  V30 20 C 2.984901 -3.362248 -1.033160 0
M  V30 21 C 3.598581 -4.582805 -1.362493 0
M  V30 22 C 3.233279 -5.766576 -0.727973 0
M  V30 23 C 2.238045 -5.744989 0.235533 0
M  V30 24 C 1.626464 -4.535402 0.576257 0
M  V30 25 C 1.995725 -3.300056 -0.015057 0
M  V30 26 C 1.387821 -2.038417 0.330197 0
M  V30 27 C 0.476165 -1.856499 1.442720 0
M  V30 28 C -0.791841 -1.258030 1.234406 0
M  V30 29 C -1.770509 -1.114917 2.234903 0
M  V30 30 C -3.077980 -0.490118 1.973326 0
M  V30 31 C -3.998111 -1.070862 1.090406 0
M  V30 32 C -5.233657 -0.463732 0.836590 0
M  V30 33 C -5.590686 0.742524 1.458014 0
M  V30 34 C -6.891331 1.379237 1.191778 0
M  V30 35 C -6.971986 2.722360 0.786780 0
M  V30 36 C -8.206580 3.326521 0.533099 0
M  V30 37 C -9.383353 2.597240 0.681821 0
M  V30 38 C -9.326690 1.265134 1.083135 0
M  V30 39 C -8.091230 0.662186 1.335154 0
M  V30 40 C -4.668157 1.321285 2.342336 0
M  V30 41 C -3.432626 0.714781 2.596961 0
M  V30 42 C -1.460722 -1.572743 3.516420 0
M  V30 43 C -0.209818 -2.121331 3.814497 0
M  V30 44 C 0.063156 -2.521313 5.133935 0
M  V30 45 C 1.313400 -3.016322 5.492546 0
M  V30 46 C 2.311888 -3.101846 4.536518 0
M  V30 47 C 2.048470 -2.714422 3.219658 0
M  V30 48 C 0.776391 -2.247317 2.799144 0
M  V30 49 O -1.139154 -0.835902 -0.030312 0
M  V30 50 H -1.782989 1.966986 -0.038135 0
M  V30 51 H 4.800258 0.697113 -0.976730 0
M  V30 52 H 5.471649 2.677561 -2.259512 0
M  V30 53 H 6.360993 3.061942 -4.789702 0
M  V30 54 H 7.020900 5.062514 -6.068902 0
M  V30 55 H 5.361045 6.843101 -6.551721 0
M  V30 56 H 3.028920 6.611616 -5.735351 0
M  V30 57 H 2.356244 4.624966 -4.441349 0
M  V30 58 H 2.222281 1.989737 -5.009340 0
M  V30 59 H 1.547102 0.021445 -3.720836 0
M  V30 60 H 4.109680 -2.259435 -2.509071 0
M  V30 61 H 4.364935 -4.623733 -2.134605 0
M  V30 62 H 3.713283 -6.702800 -0.999507 0
M  V30 63 H 1.927193 -6.665516 0.722821 0
M  V30 64 H 0.830840 -4.576038 1.318351 0
M  V30 65 H -3.756292 -2.005160 0.586501 0
M  V30 66 H -5.915973 -0.939935 0.134667 0
M  V30 67 H -6.065252 3.308683 0.653144 0
M  V30 68 H -8.246950 4.365642 0.216783 0
M  V30 69 H -10.343674 3.066450 0.484824 0
M  V30 70 H -10.243319 0.693432 1.202721 0
M  V30 71 H -8.071423 -0.376731 1.658581 0
M  V30 72 H -4.911416 2.250303 2.854851 0
M  V30 73 H -2.740311 1.198247 3.284391 0
M  V30 74 H -2.209589 -1.479052 4.302573 0
M  V30 75 H -0.700155 -2.435725 5.905400 0
M  V30 76 H 1.509866 -3.314677 6.518686 0
M  V30 77 H 3.300737 -3.462711 4.807479 0
M  V30 78 H 2.876224 -2.772575 2.515090 0
M  V30 END ATOM
M  V30 BEGIN BOND
M  V30 1 2 1 2
M  V30 2 1 2 3
M  V30 3 1 2 4
M  V30 4 1 4 5
M  V30 5 2 5 6
M  V30 6 1 6 7
M  V30 7 2 7 8
M  V30 8 1 8 9
M  V30 9 2 9 10
M  V30 10 1 10 11
M  V30 11 2 11 12
M  V30 12 1 12 13
M  V30 13 2 13 14
M  V30 14 1 14 15
M  V30 15 2 15 16
M  V30 16 1 10 17
M  V30 17 2 17 18
M  V30 18 1 6 19
M  V30 19 2 19 20
M  V30 20 1 20 21
M  V30 21 2 21 22
M  V30 22 1 22 23
M  V30 23 2 23 24
M  V30 24 1 24 25
M  V30 25 2 25 26
M  V30 26 1 26 27
M  V30 27 2 27 28
M  V30 28 1 28 29
M  V30 29 1 29 30
M  V30 30 2 30 31
M  V30 31 1 31 32
M  V30 32 2 32 33
M  V30 33 1 33 34
M  V30 34 2 34 35
M  V30 35 1 35 36
M  V30 36 2 36 37
M  V30 37 1 37 38
M  V30 38 2 38 39
M  V30 39 1 33 40
M  V30 40 2 40 41
M  V30 41 2 29 42
M  V30 42 1 42 43
M  V30 43 2 43 44
M  V30 44 1 44 45
M  V30 45 2 45 46
M  V30 46 1 46 47
M  V30 47 2 47 48
M  V30 48 1 28 49
M  V30 49 1 49 2
M  V30 50 1 26 5
M  V30 51 1 48 27
M  V30 52 1 18 7
M  V30 53 1 25 20
M  V30 54 1 41 30
M  V30 55 1 48 43
M  V30 56 1 16 11
M  V30 57 1 39 34
M  V30 58 1 3 50
M  V30 59 1 8 51
M  V30 60 1 9 52
M  V30 61 1 12 53
M  V30 62 1 13 54
M  V30 63 1 14 55
M  V30 64 1 15 56
M  V30 65 1 16 57
M  V30 66 1 17 58
M  V30 67 1 18 59
M  V30 68 1 19 60
M  V30 69 1 21 61
M  V30 70 1 22 62
M  V30 71 1 23 63
M  V30 72 1 24 64
M  V30 73 1 31 65
M  V30 74 1 32 66
M  V30 75 1 35 67
M  V30 76 1 36 68
M  V30 77 1 37 69
M  V30 78 1 38 70
M  V30 79 1 39 71
M  V30 80 1 40 72
M  V30 81 1 41 73
M  V30 82 1 42 74
M  V30 83 1 44 75
M  V30 84 1 45 76
M  V30 85 1 46 77
M  V30 86 1 47 78
M  V30 END BOND
M  V30 END CTAB
M  END
>  <catalyst_id>  (1) 
SKOZHEMVYVCNLO_UHFFFAOYSA_R

>  <source_smiles>  (1) 
O=P1(O)Oc2c(-c3ccc(-c4ccccc4)cc3)cc3ccccc3c2-c2c(c(-c3ccc(-c4ccccc4)cc3)cc3ccccc23)O1

>  <axial_configuration>  (1) 
R

>  <inchikey>  (1) 
SKOZHEMVYVCNLO-UHFFFAOYSA-N

>  <build_source>  (1) 
smiles+axial_free

>  <final_biaryl_angle_deg>  (1) 
94.94

>  <rdkit_version>  (1) 
2025.09.6

>  <random_seed>  (1) 
42

>  <generated_at>  (1) 
2026-05-19T12:30:00

$$$$
