catalyst248
     RDKit          3D

  0  0  0  0  0  0  0  0  0  0999 V3000
M  V30 BEGIN CTAB
M  V30 COUNTS 37 39 0 0 0
M  V30 BEGIN ATOM
M  V30 1 O -1.757530 -1.879839 0.691813 0
M  V30 2 C -1.253484 -0.759188 0.798413 0
M  V30 3 C -2.121965 0.525003 0.780376 0 CFG=2
M  V30 4 C -3.622285 0.247767 0.738650 0
M  V30 5 C -4.013925 0.326753 -0.732116 0
M  V30 6 C -2.729536 0.640913 -1.474866 0
M  V30 7 N -1.874272 1.280350 -0.473209 0
M  V30 8 N 0.131301 -0.577869 0.871340 0
M  V30 9 C 0.970737 -1.765530 0.723341 0
M  V30 10 C 2.368382 -1.456608 0.161477 0 CFG=1
M  V30 11 C 2.324489 -0.976714 -1.305109 0
M  V30 12 N 1.673671 0.324318 -1.493405 0
M  V30 13 C 2.179102 1.341593 -0.571591 0
M  V30 14 C 2.188312 0.882940 0.899506 0 CFG=2
M  V30 15 C 3.029869 -0.385191 1.025483 0
M  V30 16 C 0.769953 0.618396 1.437554 0
M  V30 17 H -1.890465 1.120899 1.668387 0
M  V30 18 H -3.902361 -0.716311 1.174507 0
M  V30 19 H -4.164408 1.024505 1.292318 0
M  V30 20 H -4.458040 -0.610600 -1.082385 0
M  V30 21 H -4.753407 1.122881 -0.877377 0
M  V30 22 H -2.264173 -0.280273 -1.845281 0
M  V30 23 H -2.902083 1.299891 -2.330683 0
M  V30 24 H -0.895634 1.152870 -0.752261 0
M  V30 25 H 1.059888 -2.215973 1.719937 0
M  V30 26 H 0.472793 -2.501671 0.081725 0
M  V30 27 H 2.967102 -2.374709 0.204498 0
M  V30 28 H 3.349940 -0.917061 -1.691609 0
M  V30 29 H 1.801569 -1.719809 -1.917775 0
M  V30 30 H 1.794513 0.633801 -2.457654 0
M  V30 31 H 3.196535 1.623937 -0.870374 0
M  V30 32 H 1.561579 2.241453 -0.670964 0
M  V30 33 H 2.643282 1.678374 1.502504 0
M  V30 34 H 3.087615 -0.710094 2.071307 0
M  V30 35 H 4.057150 -0.200185 0.688791 0
M  V30 36 H 0.816984 0.450565 2.521078 0
M  V30 37 H 0.158801 1.510414 1.289509 0
M  V30 END ATOM
M  V30 BEGIN BOND
M  V30 1 2 1 2
M  V30 2 1 2 3
M  V30 3 1 3 4
M  V30 4 1 4 5
M  V30 5 1 5 6
M  V30 6 1 6 7
M  V30 7 1 2 8
M  V30 8 1 8 9
M  V30 9 1 9 10
M  V30 10 1 10 11
M  V30 11 1 11 12
M  V30 12 1 12 13
M  V30 13 1 13 14
M  V30 14 1 14 15
M  V30 15 1 14 16
M  V30 16 1 7 3
M  V30 17 1 16 8
M  V30 18 1 15 10
M  V30 19 1 3 17 CFG=1
M  V30 20 1 4 18
M  V30 21 1 4 19
M  V30 22 1 5 20
M  V30 23 1 5 21
M  V30 24 1 6 22
M  V30 25 1 6 23
M  V30 26 1 7 24
M  V30 27 1 9 25
M  V30 28 1 9 26
M  V30 29 1 10 27 CFG=3
M  V30 30 1 11 28
M  V30 31 1 11 29
M  V30 32 1 12 30
M  V30 33 1 13 31
M  V30 34 1 13 32
M  V30 35 1 14 33 CFG=1
M  V30 36 1 15 34
M  V30 37 1 15 35
M  V30 38 1 16 36
M  V30 39 1 16 37
M  V30 END BOND
M  V30 END CTAB
M  END
>  <catalyst_id>  (1) 
OUDWXZXPFQMLKO_ILDUYXDCSA_NONE

>  <source_smiles>  (1) 
O=C([C@@H]1CCCN1)N1CC2CNCC(C2)C1

>  <axial_configuration>  (1) 
none

>  <inchikey>  (1) 
OUDWXZXPFQMLKO-ILDUYXDCSA-N

>  <build_source>  (1) 
smiles

>  <rdkit_version>  (1) 
2025.09.6

>  <random_seed>  (1) 
42

>  <generated_at>  (1) 
2026-05-19T12:37:17

$$$$
