catalyst370
     RDKit          3D

  0  0  0  0  0  0  0  0  0  0999 V3000
M  V30 BEGIN CTAB
M  V30 COUNTS 51 52 0 0 0
M  V30 BEGIN ATOM
M  V30 1 C -3.715961 -1.238693 -1.205228 0
M  V30 2 N -3.398163 0.191548 -1.180279 0
M  V30 3 C -4.456507 0.942777 -1.860660 0
M  V30 4 C -3.232532 0.688911 0.207536 0
M  V30 5 C -1.994782 0.107941 0.981889 0 CFG=1
M  V30 6 N -0.811875 0.157424 0.095064 0
M  V30 7 C -0.007270 -0.864519 -0.131852 0
M  V30 8 C 1.010405 -1.153491 -1.008253 0
M  V30 9 N 1.632314 -0.539528 -1.996216 0
M  V30 10 C 2.879853 -1.009034 -2.587325 0
M  V30 11 C 4.061188 -0.500418 -1.798124 0
M  V30 12 C 4.488763 0.829714 -1.929949 0
M  V30 13 C 5.572108 1.303031 -1.187569 0
M  V30 14 C 6.236258 0.454760 -0.303661 0
M  V30 15 C 5.817890 -0.866616 -0.159925 0
M  V30 16 C 4.735317 -1.342231 -0.901636 0
M  V30 17 C 1.206351 -2.503120 -0.421657 0
M  V30 18 O 1.908204 -3.473980 -0.572122 0
M  V30 19 C 0.100569 -2.198058 0.514533 0
M  V30 20 O -0.432253 -2.844146 1.384427 0
M  V30 21 C -1.699556 0.852980 2.336402 0
M  V30 22 C -1.245572 2.311707 2.123767 0
M  V30 23 C -2.958817 0.862704 3.228660 0
M  V30 24 C -0.589295 0.119992 3.120806 0
M  V30 25 H -4.631189 -1.467404 -0.647307 0
M  V30 26 H -2.900015 -1.837964 -0.790912 0
M  V30 27 H -3.849308 -1.582899 -2.237293 0
M  V30 28 H -4.559183 0.609093 -2.899360 0
M  V30 29 H -4.207828 2.009156 -1.900156 0
M  V30 30 H -5.427360 0.832077 -1.364129 0
M  V30 31 H -4.148274 0.499394 0.781173 0
M  V30 32 H -3.111826 1.776328 0.146999 0
M  V30 33 H -2.236188 -0.935750 1.220550 0
M  V30 34 H -0.940248 0.842938 -0.652248 0
M  V30 35 H 1.483177 0.458032 -2.133372 0
M  V30 36 H 2.948274 -0.631077 -3.614842 0
M  V30 37 H 2.901281 -2.102045 -2.672803 0
M  V30 38 H 3.978225 1.504875 -2.612514 0
M  V30 39 H 5.896829 2.334476 -1.296691 0
M  V30 40 H 7.078563 0.823667 0.275584 0
M  V30 41 H 6.332636 -1.528462 0.531890 0
M  V30 42 H 4.419323 -2.376333 -0.774154 0
M  V30 43 H -0.342107 2.369186 1.507617 0
M  V30 44 H -1.014031 2.791434 3.082296 0
M  V30 45 H -2.020520 2.917344 1.644695 0
M  V30 46 H -3.754739 1.482682 2.803358 0
M  V30 47 H -3.352488 -0.150593 3.365656 0
M  V30 48 H -2.736811 1.268985 4.222455 0
M  V30 49 H -0.418040 0.590913 4.096089 0
M  V30 50 H -0.861269 -0.924302 3.307107 0
M  V30 51 H 0.366485 0.136596 2.587543 0
M  V30 END ATOM
M  V30 BEGIN BOND
M  V30 1 1 1 2
M  V30 2 1 2 3
M  V30 3 1 2 4
M  V30 4 1 4 5
M  V30 5 1 5 6
M  V30 6 1 6 7
M  V30 7 2 7 8
M  V30 8 1 8 9
M  V30 9 1 9 10
M  V30 10 1 10 11
M  V30 11 2 11 12
M  V30 12 1 12 13
M  V30 13 2 13 14
M  V30 14 1 14 15
M  V30 15 2 15 16
M  V30 16 1 8 17
M  V30 17 2 17 18
M  V30 18 1 17 19
M  V30 19 2 19 20
M  V30 20 1 5 21
M  V30 21 1 21 22
M  V30 22 1 21 23
M  V30 23 1 21 24
M  V30 24 1 19 7
M  V30 25 1 16 11
M  V30 26 1 1 25
M  V30 27 1 1 26
M  V30 28 1 1 27
M  V30 29 1 3 28
M  V30 30 1 3 29
M  V30 31 1 3 30
M  V30 32 1 4 31
M  V30 33 1 4 32
M  V30 34 1 5 33 CFG=1
M  V30 35 1 6 34
M  V30 36 1 9 35
M  V30 37 1 10 36
M  V30 38 1 10 37
M  V30 39 1 12 38
M  V30 40 1 13 39
M  V30 41 1 14 40
M  V30 42 1 15 41
M  V30 43 1 16 42
M  V30 44 1 22 43
M  V30 45 1 22 44
M  V30 46 1 22 45
M  V30 47 1 23 46
M  V30 48 1 23 47
M  V30 49 1 23 48
M  V30 50 1 24 49
M  V30 51 1 24 50
M  V30 52 1 24 51
M  V30 END BOND
M  V30 END CTAB
M  END
>  <catalyst_id>  (1) 
VVAVNJUXALHWPW_CQSZACIVSA_NONE

>  <source_smiles>  (1) 
CN(C)C[C@@H](Nc1c(NCc2ccccc2)c(=O)c1=O)C(C)(C)C

>  <axial_configuration>  (1) 
none

>  <inchikey>  (1) 
VVAVNJUXALHWPW-CQSZACIVSA-N

>  <build_source>  (1) 
smiles

>  <rdkit_version>  (1) 
2025.09.6

>  <random_seed>  (1) 
42

>  <generated_at>  (1) 
2026-05-19T12:37:08

$$$$
