catalyst28
     RDKit          3D

  0  0  0  0  0  0  0  0  0  0999 V3000
M  V30 BEGIN CTAB
M  V30 COUNTS 76 79 0 0 0
M  V30 BEGIN ATOM
M  V30 1 O 5.537121 2.770063 4.865910 0
M  V30 2 N 4.833961 3.529845 4.184725 0 CHG=1
M  V30 3 O 4.541580 4.691527 4.503335 0 CHG=-1
M  V30 4 C 4.312100 3.020434 2.910765 0
M  V30 5 C 4.661840 1.737390 2.477766 0
M  V30 6 C 4.158428 1.254092 1.263662 0
M  V30 7 C 3.321804 2.046083 0.472340 0
M  V30 8 N 2.730787 1.605351 -0.729815 0
M  V30 9 C 3.091665 0.603580 -1.593346 0
M  V30 10 S 4.596781 -0.079314 -1.818965 0
M  V30 11 N 2.077287 0.149992 -2.399027 0
M  V30 12 C 0.632717 0.159526 -2.098209 0 CFG=1
M  V30 13 C -0.201151 0.114886 -3.403138 0
M  V30 14 C 0.003817 -1.091007 -4.292905 0
M  V30 15 C -0.852040 -2.197378 -4.201626 0
M  V30 16 C -0.657932 -3.313797 -5.016332 0
M  V30 17 C 0.388147 -3.333364 -5.936225 0
M  V30 18 C 1.236818 -2.234174 -6.047098 0
M  V30 19 C 1.043518 -1.116869 -5.233508 0
M  V30 20 C 0.302507 -0.953511 -1.088435 0
M  V30 21 P -0.934152 -0.550163 0.184762 0 CHG=1
M  V30 22 C -0.072457 0.656901 1.221664 0
M  V30 23 C -0.674924 1.005767 2.558490 0
M  V30 24 C -0.318847 0.271929 3.698904 0
M  V30 25 C -0.878759 0.571534 4.941444 0
M  V30 26 C -1.801682 1.607534 5.057997 0
M  V30 27 C -2.165664 2.341909 3.931665 0
M  V30 28 C -1.606276 2.042218 2.687721 0
M  V30 29 C -2.377227 0.086709 -0.608678 0
M  V30 30 C -2.562892 1.456097 -0.828421 0
M  V30 31 C -3.700388 1.929261 -1.486706 0
M  V30 32 C -4.665729 1.036106 -1.942718 0
M  V30 33 C -4.491793 -0.329864 -1.743425 0
M  V30 34 C -3.354338 -0.799155 -1.084980 0
M  V30 35 C -1.283887 -1.990298 1.162932 0
M  V30 36 C -0.478658 -3.134039 1.120772 0
M  V30 37 C -0.776687 -4.247420 1.910462 0
M  V30 38 C -1.882230 -4.229992 2.756744 0
M  V30 39 C -2.689488 -3.098195 2.815067 0
M  V30 40 C -2.390994 -1.988109 2.024138 0
M  V30 41 C 2.962628 3.322265 0.929753 0
M  V30 42 C 3.458604 3.816883 2.140529 0
M  V30 43 Br 0.000000 0.000000 0.000000 0 CHG=-1
M  V30 44 H 5.311811 1.096729 3.070690 0
M  V30 45 H 4.411656 0.236596 0.982587 0
M  V30 46 H 2.041990 2.231256 -1.125305 0
M  V30 47 H 2.384184 -0.627656 -2.977915 0
M  V30 48 H 0.408233 1.119541 -1.626160 0
M  V30 49 H 0.031033 1.011066 -3.995479 0
M  V30 50 H -1.267350 0.199645 -3.172098 0
M  V30 51 H -1.679307 -2.197267 -3.495002 0
M  V30 52 H -1.325645 -4.167606 -4.935006 0
M  V30 53 H 0.538023 -4.202521 -6.571276 0
M  V30 54 H 2.047803 -2.245146 -6.770900 0
M  V30 55 H 1.709427 -0.263036 -5.342963 0
M  V30 56 H 1.208721 -1.229882 -0.535933 0
M  V30 57 H -0.021989 -1.862175 -1.601709 0
M  V30 58 H 0.085077 1.580759 0.655255 0
M  V30 59 H 0.934814 0.261377 1.403133 0
M  V30 60 H 0.389847 -0.550687 3.624578 0
M  V30 61 H -0.597701 -0.008874 5.816240 0
M  V30 62 H -2.239155 1.839986 6.025131 0
M  V30 63 H -2.888645 3.148490 4.021430 0
M  V30 64 H -1.907812 2.630545 1.826901 0
M  V30 65 H -1.819917 2.175487 -0.500853 0
M  V30 66 H -3.832732 2.996376 -1.646077 0
M  V30 67 H -5.551583 1.403346 -2.454049 0
M  V30 68 H -5.241254 -1.032272 -2.098998 0
M  V30 69 H -3.234245 -1.871536 -0.942911 0
M  V30 70 H 0.394553 -3.178270 0.476987 0
M  V30 71 H -0.141908 -5.128742 1.866070 0
M  V30 72 H -2.111630 -5.095123 3.372734 0
M  V30 73 H -3.549292 -3.073723 3.479143 0
M  V30 74 H -3.025287 -1.105835 2.090814 0
M  V30 75 H 2.296551 3.954373 0.346823 0
M  V30 76 H 3.167814 4.813546 2.466129 0
M  V30 END ATOM
M  V30 BEGIN BOND
M  V30 1 2 1 2
M  V30 2 1 2 3
M  V30 3 1 2 4
M  V30 4 2 4 5
M  V30 5 1 5 6
M  V30 6 2 6 7
M  V30 7 1 7 8
M  V30 8 1 8 9
M  V30 9 2 9 10
M  V30 10 1 9 11
M  V30 11 1 11 12
M  V30 12 1 12 13
M  V30 13 1 13 14
M  V30 14 2 14 15
M  V30 15 1 15 16
M  V30 16 2 16 17
M  V30 17 1 17 18
M  V30 18 2 18 19
M  V30 19 1 12 20
M  V30 20 1 20 21
M  V30 21 1 21 22
M  V30 22 1 22 23
M  V30 23 2 23 24
M  V30 24 1 24 25
M  V30 25 2 25 26
M  V30 26 1 26 27
M  V30 27 2 27 28
M  V30 28 1 21 29
M  V30 29 2 29 30
M  V30 30 1 30 31
M  V30 31 2 31 32
M  V30 32 1 32 33
M  V30 33 2 33 34
M  V30 34 1 21 35
M  V30 35 2 35 36
M  V30 36 1 36 37
M  V30 37 2 37 38
M  V30 38 1 38 39
M  V30 39 2 39 40
M  V30 40 1 7 41
M  V30 41 2 41 42
M  V30 42 1 42 4
M  V30 43 1 19 14
M  V30 44 1 28 23
M  V30 45 1 34 29
M  V30 46 1 40 35
M  V30 47 1 5 44
M  V30 48 1 6 45
M  V30 49 1 8 46
M  V30 50 1 11 47
M  V30 51 1 12 48 CFG=1
M  V30 52 1 13 49
M  V30 53 1 13 50
M  V30 54 1 15 51
M  V30 55 1 16 52
M  V30 56 1 17 53
M  V30 57 1 18 54
M  V30 58 1 19 55
M  V30 59 1 20 56
M  V30 60 1 20 57
M  V30 61 1 22 58
M  V30 62 1 22 59
M  V30 63 1 24 60
M  V30 64 1 25 61
M  V30 65 1 26 62
M  V30 66 1 27 63
M  V30 67 1 28 64
M  V30 68 1 30 65
M  V30 69 1 31 66
M  V30 70 1 32 67
M  V30 71 1 33 68
M  V30 72 1 34 69
M  V30 73 1 36 70
M  V30 74 1 37 71
M  V30 75 1 38 72
M  V30 76 1 39 73
M  V30 77 1 40 74
M  V30 78 1 41 75
M  V30 79 1 42 76
M  V30 END BOND
M  V30 END CTAB
M  END
>  <catalyst_id>  (1) 
CMURMIZLQMENSX_YNMZEGNTSA_NONE

>  <source_smiles>  (1) 
O=[N+]([O-])c1ccc(NC(=S)N[C@@H](Cc2ccccc2)C[P+](Cc2ccccc2)(c2ccccc2)c2ccccc2)cc1.[Br-]

>  <axial_configuration>  (1) 
none

>  <inchikey>  (1) 
CMURMIZLQMENSX-YNMZEGNTSA-N

>  <build_source>  (1) 
smiles

>  <rdkit_version>  (1) 
2025.09.6

>  <random_seed>  (1) 
42

>  <generated_at>  (1) 
2026-05-19T12:37:05

$$$$
