catalyst118
     RDKit          3D

  0  0  0  0  0  0  0  0  0  0999 V3000
M  V30 BEGIN CTAB
M  V30 COUNTS 69 73 0 0 0
M  V30 BEGIN ATOM
M  V30 1 C -3.174564 -5.434010 -1.840655 0
M  V30 2 C -2.822297 -4.184037 -1.512094 0
M  V30 3 C -3.370048 -3.445847 -0.313775 0 CFG=1
M  V30 4 C -2.255517 -3.010168 0.674224 0
M  V30 5 N -2.451292 -1.619774 1.160208 0
M  V30 6 C -3.833413 -1.529699 1.701479 0
M  V30 7 C -4.881088 -1.692047 0.584447 0
M  V30 8 C -4.184290 -2.185401 -0.699955 0 CFG=1
M  V30 9 C -3.219954 -1.070242 -1.158177 0
M  V30 10 C -2.341006 -0.629387 0.038970 0 CFG=2
M  V30 11 C -0.867549 -0.219118 -0.329592 0 CFG=1
M  V30 12 N -0.109899 -1.246439 -1.057326 0
M  V30 13 C 1.244613 -1.434495 -1.122984 0
M  V30 14 S 1.744796 -2.836387 -1.879390 0
M  V30 15 N 2.003989 -0.422094 -0.594114 0
M  V30 16 C 3.372309 -0.353253 -0.256271 0
M  V30 17 C 3.921994 0.928101 -0.113043 0
M  V30 18 C 5.271876 1.110836 0.230103 0
M  V30 19 C 5.838944 2.501853 0.379486 0
M  V30 20 F 7.177305 2.561979 0.135634 0
M  V30 21 F 5.265819 3.404457 -0.463761 0
M  V30 22 F 5.663224 2.997048 1.634836 0
M  V30 23 C 6.068200 -0.018362 0.466131 0
M  V30 24 C 5.528857 -1.309710 0.365560 0
M  V30 25 C 6.386491 -2.527461 0.618077 0
M  V30 26 F 7.448819 -2.267844 1.431617 0
M  V30 27 F 5.707536 -3.546873 1.212304 0
M  V30 28 F 6.911384 -3.038337 -0.528407 0
M  V30 29 C 4.178523 -1.461809 0.002067 0
M  V30 30 C -0.847007 1.118400 -1.077724 0
M  V30 31 C -0.865149 1.126045 -2.480495 0
M  V30 32 C -0.828027 2.334561 -3.143681 0
M  V30 33 N -0.780775 3.525316 -2.519511 0
M  V30 34 C -0.778117 3.541102 -1.179242 0
M  V30 35 C -0.733246 4.776827 -0.551056 0
M  V30 36 C -0.727903 4.906136 0.840908 0
M  V30 37 C -0.772879 3.770300 1.634438 0
M  V30 38 O -0.778223 3.739105 3.000150 0
M  V30 39 C -0.720280 4.990883 3.673931 0
M  V30 40 C -0.818812 2.515744 1.019389 0
M  V30 41 C -0.816037 2.367617 -0.391329 0
M  V30 42 H -3.891072 -6.002573 -1.255681 0
M  V30 43 H -2.745268 -5.920984 -2.711717 0
M  V30 44 H -2.096544 -3.678519 -2.143660 0
M  V30 45 H -4.047827 -4.123756 0.225764 0
M  V30 46 H -2.267772 -3.686768 1.539809 0
M  V30 47 H -1.253710 -3.134111 0.254511 0
M  V30 48 H -3.975102 -0.568314 2.210646 0
M  V30 49 H -3.981014 -2.293911 2.475276 0
M  V30 50 H -5.381912 -0.735145 0.393812 0
M  V30 51 H -5.651797 -2.405284 0.899178 0
M  V30 52 H -4.922184 -2.404075 -1.479669 0
M  V30 53 H -3.802335 -0.209701 -1.511438 0
M  V30 54 H -2.627049 -1.413298 -2.010221 0
M  V30 55 H -2.791534 0.296132 0.428948 0
M  V30 56 H -0.315325 -0.094361 0.608874 0
M  V30 57 H -0.633835 -2.014884 -1.452673 0
M  V30 58 H 1.535942 0.474335 -0.598940 0
M  V30 59 H 3.303238 1.808753 -0.287278 0
M  V30 60 H 7.116963 0.108228 0.740715 0
M  V30 61 H 3.773592 -2.469354 -0.031363 0
M  V30 62 H -0.895132 0.207400 -3.058166 0
M  V30 63 H -0.832019 2.379511 -4.229298 0
M  V30 64 H -0.701619 5.673886 -1.166660 0
M  V30 65 H -0.691616 5.905515 1.261021 0
M  V30 66 H -0.727156 4.791861 4.749898 0
M  V30 67 H 0.207625 5.522761 3.439035 0
M  V30 68 H -1.597539 5.603992 3.442551 0
M  V30 69 H -0.865307 1.649152 1.675351 0
M  V30 END ATOM
M  V30 BEGIN BOND
M  V30 1 2 1 2
M  V30 2 1 2 3
M  V30 3 1 3 4
M  V30 4 1 4 5
M  V30 5 1 5 6
M  V30 6 1 6 7
M  V30 7 1 7 8
M  V30 8 1 8 9
M  V30 9 1 9 10
M  V30 10 1 10 11
M  V30 11 1 11 12
M  V30 12 1 12 13
M  V30 13 2 13 14
M  V30 14 1 13 15
M  V30 15 1 15 16
M  V30 16 2 16 17
M  V30 17 1 17 18
M  V30 18 1 18 19
M  V30 19 1 19 20
M  V30 20 1 19 21
M  V30 21 1 19 22
M  V30 22 2 18 23
M  V30 23 1 23 24
M  V30 24 1 24 25
M  V30 25 1 25 26
M  V30 26 1 25 27
M  V30 27 1 25 28
M  V30 28 2 24 29
M  V30 29 1 11 30
M  V30 30 2 30 31
M  V30 31 1 31 32
M  V30 32 2 32 33
M  V30 33 1 33 34
M  V30 34 2 34 35
M  V30 35 1 35 36
M  V30 36 2 36 37
M  V30 37 1 37 38
M  V30 38 1 38 39
M  V30 39 1 37 40
M  V30 40 2 40 41
M  V30 41 1 8 3
M  V30 42 1 29 16
M  V30 43 1 41 30
M  V30 44 1 10 5
M  V30 45 1 41 34
M  V30 46 1 1 42
M  V30 47 1 1 43
M  V30 48 1 2 44
M  V30 49 1 3 45 CFG=1
M  V30 50 1 4 46
M  V30 51 1 4 47
M  V30 52 1 6 48
M  V30 53 1 6 49
M  V30 54 1 7 50
M  V30 55 1 7 51
M  V30 56 1 8 52 CFG=3
M  V30 57 1 9 53
M  V30 58 1 9 54
M  V30 59 1 10 55 CFG=1
M  V30 60 1 11 56 CFG=1
M  V30 61 1 12 57
M  V30 62 1 15 58
M  V30 63 1 17 59
M  V30 64 1 23 60
M  V30 65 1 29 61
M  V30 66 1 31 62
M  V30 67 1 32 63
M  V30 68 1 35 64
M  V30 69 1 36 65
M  V30 70 1 39 66
M  V30 71 1 39 67
M  V30 72 1 39 68
M  V30 73 1 40 69
M  V30 END BOND
M  V30 END CTAB
M  END
>  <catalyst_id>  (1) 
IQMKPBFOEWWDIQ_JTSNXCRFSA_NONE

>  <source_smiles>  (1) 
C=C[C@H]1CN2CC[C@H]1C[C@@H]2[C@@H](NC(=S)Nc1cc(C(F)(F)F)cc(C(F)(F)F)c1)c1ccnc2ccc(OC)cc12

>  <axial_configuration>  (1) 
none

>  <inchikey>  (1) 
IQMKPBFOEWWDIQ-JTSNXCRFSA-N

>  <build_source>  (1) 
smiles

>  <rdkit_version>  (1) 
2025.09.6

>  <random_seed>  (1) 
42

>  <generated_at>  (1) 
2026-05-19T12:33:53

$$$$
