catalyst354
     RDKit          3D

  0  0  0  0  0  0  0  0  0  0999 V3000
M  V30 BEGIN CTAB
M  V30 COUNTS 45 49 0 0 0
M  V30 BEGIN ATOM
M  V30 1 C -2.491393 2.948851 -0.565325 0
M  V30 2 C -2.326277 1.965838 0.587655 0
M  V30 3 C -1.779011 0.597605 0.162512 0 CFG=2
M  V30 4 C -2.678546 -0.124263 -0.881910 0
M  V30 5 N -2.307830 -1.576530 -0.807616 0
M  V30 6 C -3.079817 -2.117420 0.346983 0
M  V30 7 C -2.935945 -1.183399 1.577942 0
M  V30 8 C -1.628213 -0.380295 1.402436 0 CFG=1
M  V30 9 C -0.590146 -1.447535 1.025004 0
M  V30 10 C -0.799673 -1.632018 -0.493588 0 CFG=2
M  V30 11 C -0.058223 -0.410463 -1.151288 0 CFG=2
M  V30 12 C 1.455834 -0.594217 -1.264167 0
M  V30 13 C 1.871336 -1.486386 -2.270718 0
M  V30 14 C 3.215981 -1.724041 -2.457351 0
M  V30 15 N 4.178995 -1.147196 -1.721276 0
M  V30 16 C 3.811471 -0.291852 -0.757198 0
M  V30 17 C 4.837331 0.283487 -0.018459 0
M  V30 18 C 4.593699 1.183388 1.017563 0
M  V30 19 C 3.285808 1.510560 1.316066 0
M  V30 20 O 2.980925 2.378513 2.321537 0
M  V30 21 C 2.234846 0.953783 0.592738 0
M  V30 22 C 2.460066 0.036002 -0.466879 0
M  V30 23 O -0.474148 0.792602 -0.455937 0
M  V30 24 H -3.223467 2.589762 -1.294724 0
M  V30 25 H -1.542691 3.121229 -1.082792 0
M  V30 26 H -2.845569 3.912954 -0.186138 0
M  V30 27 H -1.634961 2.417573 1.310177 0
M  V30 28 H -3.291062 1.847830 1.094178 0
M  V30 29 H -2.497027 0.243319 -1.898824 0
M  V30 30 H -3.750265 0.021579 -0.694894 0
M  V30 31 H -4.138932 -2.213449 0.078551 0
M  V30 32 H -2.736924 -3.133378 0.578933 0
M  V30 33 H -2.904735 -1.785020 2.493751 0
M  V30 34 H -3.794814 -0.507818 1.661244 0
M  V30 35 H -1.343625 0.144537 2.319460 0
M  V30 36 H 0.421021 -1.116052 1.272871 0
M  V30 37 H -0.738080 -2.384904 1.575257 0
M  V30 38 H -0.402132 -2.592189 -0.837834 0
M  V30 39 H -0.405032 -0.289483 -2.187402 0
M  V30 40 H 1.151575 -1.989929 -2.910477 0
M  V30 41 H 3.564766 -2.405129 -3.228057 0
M  V30 42 H 5.864689 0.018242 -0.259774 0
M  V30 43 H 5.428899 1.604313 1.566631 0
M  V30 44 H 3.807482 2.708405 2.710511 0
M  V30 45 H 1.233808 1.252596 0.880632 0
M  V30 END ATOM
M  V30 BEGIN BOND
M  V30 1 1 1 2
M  V30 2 1 3 2 CFG=1
M  V30 3 1 3 4
M  V30 4 1 4 5
M  V30 5 1 5 6
M  V30 6 1 6 7
M  V30 7 1 7 8
M  V30 8 1 8 9
M  V30 9 1 9 10
M  V30 10 1 10 11
M  V30 11 1 11 12
M  V30 12 2 12 13
M  V30 13 1 13 14
M  V30 14 2 14 15
M  V30 15 1 15 16
M  V30 16 2 16 17
M  V30 17 1 17 18
M  V30 18 2 18 19
M  V30 19 1 19 20
M  V30 20 1 19 21
M  V30 21 2 21 22
M  V30 22 1 11 23
M  V30 23 1 8 3
M  V30 24 1 22 12
M  V30 25 1 23 3
M  V30 26 1 10 5
M  V30 27 1 22 16
M  V30 28 1 1 24
M  V30 29 1 1 25
M  V30 30 1 1 26
M  V30 31 1 2 27
M  V30 32 1 2 28
M  V30 33 1 4 29
M  V30 34 1 4 30
M  V30 35 1 6 31
M  V30 36 1 6 32
M  V30 37 1 7 33
M  V30 38 1 7 34
M  V30 39 1 8 35 CFG=1
M  V30 40 1 9 36
M  V30 41 1 9 37
M  V30 42 1 10 38 CFG=3
M  V30 43 1 11 39 CFG=3
M  V30 44 1 13 40
M  V30 45 1 14 41
M  V30 46 1 17 42
M  V30 47 1 18 43
M  V30 48 1 20 44
M  V30 49 1 21 45
M  V30 END BOND
M  V30 END CTAB
M  END
>  <catalyst_id>  (1) 
ULTQUFCPWDEOND_BTINSWFASA_NONE

>  <source_smiles>  (1) 
CC[C@]12CN3CC[C@H]1C[C@@H]3[C@H](c1ccnc3ccc(O)cc13)O2

>  <axial_configuration>  (1) 
none

>  <inchikey>  (1) 
ULTQUFCPWDEOND-BTINSWFASA-N

>  <build_source>  (1) 
smiles

>  <rdkit_version>  (1) 
2025.09.6

>  <random_seed>  (1) 
42

>  <generated_at>  (1) 
2026-05-19T12:30:14

$$$$
