catalyst244
     RDKit          3D

  0  0  0  0  0  0  0  0  0  0999 V3000
M  V30 BEGIN CTAB
M  V30 COUNTS 59 63 0 0 0
M  V30 BEGIN ATOM
M  V30 1 C 5.805288 -1.314516 0.781569 0
M  V30 2 C 4.511695 -0.982411 0.680142 0
M  V30 3 C 3.606463 -1.447048 -0.436878 0 CFG=1
M  V30 4 C 2.353064 -2.192112 0.095168 0
M  V30 5 N 1.085452 -1.555244 -0.353695 0
M  V30 6 C 1.049252 -1.584737 -1.837010 0
M  V30 7 C 2.276717 -0.901605 -2.459730 0
M  V30 8 C 3.136034 -0.282435 -1.342678 0 CFG=1
M  V30 9 C 2.213148 0.678463 -0.569337 0
M  V30 10 C 1.092816 -0.127954 0.126447 0 CFG=1
M  V30 11 C -0.321136 0.560556 0.012332 0 CFG=1
M  V30 12 N -1.366889 -0.446174 0.300782 0
M  V30 13 C -2.706723 -0.374149 -0.025698 0
M  V30 14 S -3.521714 0.979643 -0.581722 0
M  V30 15 C -3.428407 -1.646434 0.215672 0
M  V30 16 C -3.684511 -1.996796 1.549407 0
M  V30 17 C -4.396199 -3.163031 1.844122 0
M  V30 18 C -4.857575 -3.986515 0.814649 0
M  V30 19 C -4.602521 -3.653288 -0.516280 0
M  V30 20 C -3.882420 -2.485498 -0.806067 0
M  V30 21 N -3.583218 -2.201744 -2.196018 0 CHG=1
M  V30 22 O -2.396353 -2.019945 -2.497637 0
M  V30 23 O -4.531118 -2.224992 -2.992563 0 CHG=-1
M  V30 24 C -0.410565 1.751829 0.964562 0
M  V30 25 C -0.537403 1.496673 2.340048 0
M  V30 26 C -0.570454 2.556657 3.220925 0
M  V30 27 N -0.478791 3.843155 2.842162 0
M  V30 28 C -0.372191 4.110629 1.531583 0
M  V30 29 C -0.292133 5.445627 1.160035 0
M  V30 30 C -0.181723 5.838419 -0.173419 0
M  V30 31 C -0.153260 4.874117 -1.167248 0
M  V30 32 C -0.229930 3.524446 -0.820765 0
M  V30 33 C -0.334740 3.107037 0.530989 0
M  V30 34 H 6.294804 -1.947731 0.047979 0
M  V30 35 H 6.408367 -0.951328 1.608642 0
M  V30 36 H 4.079748 -0.344160 1.448754 0
M  V30 37 H 4.166759 -2.153359 -1.066363 0
M  V30 38 H 2.370373 -3.232825 -0.254976 0
M  V30 39 H 2.354912 -2.260959 1.190770 0
M  V30 40 H 0.988447 -2.624924 -2.180549 0
M  V30 41 H 0.135524 -1.105452 -2.203761 0
M  V30 42 H 1.953890 -0.125543 -3.164028 0
M  V30 43 H 2.865140 -1.630156 -3.030166 0
M  V30 44 H 3.986685 0.258699 -1.771814 0
M  V30 45 H 1.801726 1.410547 -1.272757 0
M  V30 46 H 2.782466 1.244759 0.176511 0
M  V30 47 H 1.333882 -0.178728 1.198045 0
M  V30 48 H -0.493022 0.857009 -1.025083 0
M  V30 49 H -0.964289 -1.376094 0.412249 0
M  V30 50 H -3.347192 -1.353146 2.359836 0
M  V30 51 H -4.600535 -3.425311 2.880518 0
M  V30 52 H -5.416658 -4.889633 1.051939 0
M  V30 53 H -4.958989 -4.303320 -1.313102 0
M  V30 54 H -0.609655 0.483106 2.721105 0
M  V30 55 H -0.669973 2.394924 4.290135 0
M  V30 56 H -0.321691 6.206490 1.936942 0
M  V30 57 H -0.127395 6.893389 -0.427179 0
M  V30 58 H -0.080786 5.166019 -2.211794 0
M  V30 59 H -0.222492 2.807098 -1.635701 0
M  V30 END ATOM
M  V30 BEGIN BOND
M  V30 1 2 1 2
M  V30 2 1 2 3
M  V30 3 1 3 4
M  V30 4 1 4 5
M  V30 5 1 5 6
M  V30 6 1 6 7
M  V30 7 1 7 8
M  V30 8 1 8 9
M  V30 9 1 9 10
M  V30 10 1 10 11
M  V30 11 1 11 12
M  V30 12 1 12 13
M  V30 13 2 13 14
M  V30 14 1 13 15
M  V30 15 2 15 16
M  V30 16 1 16 17
M  V30 17 2 17 18
M  V30 18 1 18 19
M  V30 19 2 19 20
M  V30 20 1 20 21
M  V30 21 2 21 22
M  V30 22 1 21 23
M  V30 23 1 11 24
M  V30 24 2 24 25
M  V30 25 1 25 26
M  V30 26 2 26 27
M  V30 27 1 27 28
M  V30 28 2 28 29
M  V30 29 1 29 30
M  V30 30 2 30 31
M  V30 31 1 31 32
M  V30 32 2 32 33
M  V30 33 1 8 3
M  V30 34 1 20 15
M  V30 35 1 33 24
M  V30 36 1 10 5
M  V30 37 1 33 28
M  V30 38 1 1 34
M  V30 39 1 1 35
M  V30 40 1 2 36
M  V30 41 1 3 37 CFG=3
M  V30 42 1 4 38
M  V30 43 1 4 39
M  V30 44 1 6 40
M  V30 45 1 6 41
M  V30 46 1 7 42
M  V30 47 1 7 43
M  V30 48 1 8 44 CFG=3
M  V30 49 1 9 45
M  V30 50 1 9 46
M  V30 51 1 10 47 CFG=1
M  V30 52 1 11 48 CFG=3
M  V30 53 1 12 49
M  V30 54 1 16 50
M  V30 55 1 17 51
M  V30 56 1 18 52
M  V30 57 1 19 53
M  V30 58 1 25 54
M  V30 59 1 26 55
M  V30 60 1 29 56
M  V30 61 1 30 57
M  V30 62 1 31 58
M  V30 63 1 32 59
M  V30 END BOND
M  V30 END CTAB
M  END
>  <catalyst_id>  (1) 
ONHCQZWAXMFCCW_WBYKHBECSA_NONE

>  <source_smiles>  (1) 
C=C[C@H]1CN2CC[C@H]1C[C@H]2[C@@H](NC(=S)c1ccccc1[N+](=O)[O-])c1ccnc2ccccc12

>  <axial_configuration>  (1) 
none

>  <inchikey>  (1) 
ONHCQZWAXMFCCW-WBYKHBECSA-N

>  <build_source>  (1) 
smiles

>  <rdkit_version>  (1) 
2025.09.6

>  <random_seed>  (1) 
42

>  <generated_at>  (1) 
2026-05-19T12:34:45

$$$$
