catalyst398
     RDKit          3D

  0  0  0  0  0  0  0  0  0  0999 V3000
M  V30 BEGIN CTAB
M  V30 COUNTS 29 29 0 0 0
M  V30 BEGIN ATOM
M  V30 1 C -2.255947 -1.857966 1.300073 0
M  V30 2 C -1.968862 -0.655608 0.387884 0
M  V30 3 C -2.843878 -0.771175 -0.864817 0
M  V30 4 C -2.253201 0.631184 1.170240 0
M  V30 5 O -0.560423 -0.771049 0.059656 0
M  V30 6 C 0.046754 0.148381 -0.740295 0
M  V30 7 O -0.495831 1.113466 -1.264114 0
M  V30 8 C 1.525939 -0.220492 -0.930272 0 CFG=2
M  V30 9 C 2.292444 -0.226073 0.392337 0
M  V30 10 C 3.389808 0.813388 0.221919 0
M  V30 11 C 2.858178 1.721169 -0.864829 0
M  V30 12 N 2.218292 0.781591 -1.782940 0
M  V30 13 H -3.302275 -1.884140 1.622093 0
M  V30 14 H -2.027949 -2.799577 0.786948 0
M  V30 15 H -1.619583 -1.830734 2.192401 0
M  V30 16 H -2.563549 -1.650922 -1.454955 0
M  V30 17 H -3.904731 -0.850340 -0.603752 0
M  V30 18 H -2.733260 0.095940 -1.522777 0
M  V30 19 H -2.131398 1.523302 0.548629 0
M  V30 20 H -3.276372 0.641960 1.561137 0
M  V30 21 H -1.557719 0.736813 2.010498 0
M  V30 22 H 1.564930 -1.193596 -1.431306 0
M  V30 23 H 1.654472 0.047102 1.240836 0
M  V30 24 H 2.728111 -1.208728 0.602333 0
M  V30 25 H 3.598577 1.350402 1.151916 0
M  V30 26 H 4.317194 0.326782 -0.104845 0
M  V30 27 H 2.124949 2.428895 -0.460690 0
M  V30 28 H 3.654581 2.285672 -1.357404 0
M  V30 29 H 1.520747 1.274352 -2.349303 0
M  V30 END ATOM
M  V30 BEGIN BOND
M  V30 1 1 1 2
M  V30 2 1 2 3
M  V30 3 1 2 4
M  V30 4 1 2 5
M  V30 5 1 5 6
M  V30 6 2 6 7
M  V30 7 1 6 8
M  V30 8 1 8 9
M  V30 9 1 9 10
M  V30 10 1 10 11
M  V30 11 1 11 12
M  V30 12 1 12 8
M  V30 13 1 1 13
M  V30 14 1 1 14
M  V30 15 1 1 15
M  V30 16 1 3 16
M  V30 17 1 3 17
M  V30 18 1 3 18
M  V30 19 1 4 19
M  V30 20 1 4 20
M  V30 21 1 4 21
M  V30 22 1 8 22 CFG=3
M  V30 23 1 9 23
M  V30 24 1 9 24
M  V30 25 1 10 25
M  V30 26 1 10 26
M  V30 27 1 11 27
M  V30 28 1 11 28
M  V30 29 1 12 29
M  V30 END BOND
M  V30 END CTAB
M  END
>  <catalyst_id>  (1) 
XJJBXZIKXFOMLP_ZETCQYMHSA_NONE

>  <source_smiles>  (1) 
CC(C)(C)OC(=O)[C@@H]1CCCN1

>  <axial_configuration>  (1) 
none

>  <inchikey>  (1) 
XJJBXZIKXFOMLP-ZETCQYMHSA-N

>  <build_source>  (1) 
smiles

>  <rdkit_version>  (1) 
2025.09.6

>  <random_seed>  (1) 
42

>  <generated_at>  (1) 
2026-05-19T12:36:58

$$$$
