catalyst181
     RDKit          3D

  0  0  0  0  0  0  0  0  0  0999 V3000
M  V30 BEGIN CTAB
M  V30 COUNTS 48 51 0 0 0
M  V30 BEGIN ATOM
M  V30 1 C -1.754910 2.398757 1.746234 0
M  V30 2 C -2.833534 1.634223 1.532127 0
M  V30 3 C -3.283397 0.958876 0.251731 0 CFG=1
M  V30 4 C -2.530457 1.299160 -1.071533 0
M  V30 5 N -1.879173 0.094829 -1.670748 0
M  V30 6 C -2.964079 -0.842406 -2.046843 0
M  V30 7 C -3.880625 -1.185817 -0.865133 0
M  V30 8 C -3.287951 -0.586302 0.418981 0 CFG=1
M  V30 9 C -1.845502 -1.121433 0.516268 0
M  V30 10 C -0.990095 -0.483408 -0.603174 0 CFG=1
M  V30 11 C 0.150147 -1.404536 -1.146964 0 CFG=2
M  V30 12 O -0.363547 -2.633824 -1.670816 0
M  V30 13 C 1.207552 -1.700668 -0.088279 0
M  V30 14 C 1.164905 -2.917195 0.606268 0
M  V30 15 C 2.110685 -3.168497 1.578224 0
M  V30 16 N 3.086094 -2.303591 1.914105 0
M  V30 17 C 3.143048 -1.133820 1.260790 0
M  V30 18 C 4.151100 -0.248748 1.614174 0
M  V30 19 C 4.299403 0.998505 0.999422 0
M  V30 20 C 3.417908 1.378843 -0.001113 0
M  V30 21 O 3.436127 2.560456 -0.687322 0
M  V30 22 C 4.471013 3.479240 -0.358178 0
M  V30 23 C 2.396657 0.499968 -0.372503 0
M  V30 24 C 2.231227 -0.766982 0.243598 0
M  V30 25 H -1.022748 2.627974 0.980793 0
M  V30 26 H -1.567786 2.815457 2.732467 0
M  V30 27 H -3.494080 1.464971 2.383738 0
M  V30 28 H -4.325327 1.280465 0.107384 0
M  V30 29 H -1.783249 2.089077 -0.949856 0
M  V30 30 H -3.245158 1.710987 -1.797454 0
M  V30 31 H -2.561959 -1.759065 -2.484384 0
M  V30 32 H -3.562090 -0.395993 -2.852083 0
M  V30 33 H -3.972917 -2.274263 -0.769393 0
M  V30 34 H -4.888544 -0.789989 -1.037905 0
M  V30 35 H -3.877881 -0.896992 1.288652 0
M  V30 36 H -1.860326 -2.215112 0.440645 0
M  V30 37 H -1.414812 -0.876544 1.494413 0
M  V30 38 H -0.465968 0.371181 -0.154383 0
M  V30 39 H 0.648480 -0.913075 -1.991557 0
M  V30 40 H -0.652335 -2.423896 -2.575396 0
M  V30 41 H 0.405260 -3.662997 0.392386 0
M  V30 42 H 2.107733 -4.102742 2.132087 0
M  V30 43 H 4.847462 -0.539850 2.398023 0
M  V30 44 H 5.111087 1.636990 1.330277 0
M  V30 45 H 5.458318 3.051644 -0.561905 0
M  V30 46 H 4.389274 3.808641 0.682903 0
M  V30 47 H 4.351362 4.359982 -0.996439 0
M  V30 48 H 1.723609 0.827519 -1.161306 0
M  V30 END ATOM
M  V30 BEGIN BOND
M  V30 1 2 1 2
M  V30 2 1 2 3
M  V30 3 1 3 4
M  V30 4 1 4 5
M  V30 5 1 5 6
M  V30 6 1 6 7
M  V30 7 1 7 8
M  V30 8 1 8 9
M  V30 9 1 9 10
M  V30 10 1 10 11
M  V30 11 1 11 12
M  V30 12 1 11 13
M  V30 13 2 13 14
M  V30 14 1 14 15
M  V30 15 2 15 16
M  V30 16 1 16 17
M  V30 17 2 17 18
M  V30 18 1 18 19
M  V30 19 2 19 20
M  V30 20 1 20 21
M  V30 21 1 21 22
M  V30 22 1 20 23
M  V30 23 2 23 24
M  V30 24 1 8 3
M  V30 25 1 24 13
M  V30 26 1 10 5
M  V30 27 1 24 17
M  V30 28 1 1 25
M  V30 29 1 1 26
M  V30 30 1 2 27
M  V30 31 1 3 28 CFG=3
M  V30 32 1 4 29
M  V30 33 1 4 30
M  V30 34 1 6 31
M  V30 35 1 6 32
M  V30 36 1 7 33
M  V30 37 1 7 34
M  V30 38 1 8 35 CFG=1
M  V30 39 1 9 36
M  V30 40 1 9 37
M  V30 41 1 10 38 CFG=1
M  V30 42 1 11 39 CFG=3
M  V30 43 1 12 40
M  V30 44 1 14 41
M  V30 45 1 15 42
M  V30 46 1 18 43
M  V30 47 1 19 44
M  V30 48 1 22 45
M  V30 49 1 22 46
M  V30 50 1 22 47
M  V30 51 1 23 48
M  V30 END BOND
M  V30 END CTAB
M  END
>  <catalyst_id>  (1) 
LOUPRKONTZGTKE_WZBLMQSHSA_NONE

>  <source_smiles>  (1) 
C=C[C@H]1CN2CC[C@H]1C[C@H]2[C@H](O)c1ccnc2ccc(OC)cc12

>  <axial_configuration>  (1) 
none

>  <inchikey>  (1) 
LOUPRKONTZGTKE-WZBLMQSHSA-N

>  <build_source>  (1) 
smiles

>  <rdkit_version>  (1) 
2025.09.6

>  <random_seed>  (1) 
42

>  <generated_at>  (1) 
2026-05-19T12:29:45

$$$$
