catalyst86
     RDKit          3D

  0  0  0  0  0  0  0  0  0  0999 V3000
M  V30 BEGIN CTAB
M  V30 COUNTS 69 73 0 0 0
M  V30 BEGIN ATOM
M  V30 1 C 1.742962 -0.526793 5.576859 0
M  V30 2 C 1.303794 -0.594692 4.313335 0
M  V30 3 C 0.535622 0.510768 3.627285 0 CFG=1
M  V30 4 C 1.225525 0.987640 2.320506 0
M  V30 5 N 0.359253 0.791091 1.121863 0
M  V30 6 C -0.869505 1.611674 1.300998 0
M  V30 7 C -1.585044 1.315866 2.625749 0
M  V30 8 C -0.918450 0.100239 3.288949 0 CFG=1
M  V30 9 C -0.948966 -1.023024 2.235157 0
M  V30 10 C 0.002686 -0.674257 1.059457 0 CFG=1
M  V30 11 C -0.505276 -1.154878 -0.361308 0 CFG=1
M  V30 12 N 0.557138 -1.209274 -1.390437 0
M  V30 13 C 1.167962 -0.205427 -2.084951 0
M  V30 14 S 2.062600 -0.687385 -3.412562 0
M  V30 15 N 0.997761 1.055021 -1.588116 0
M  V30 16 C 1.257056 2.320347 -2.155184 0
M  V30 17 C 1.264353 2.576653 -3.526707 0
M  V30 18 C 1.507721 3.869994 -4.022611 0
M  V30 19 C 1.493402 4.124954 -5.511085 0
M  V30 20 F 2.003676 3.095799 -6.240246 0
M  V30 21 F 0.233874 4.334553 -5.983686 0
M  V30 22 F 2.212608 5.226065 -5.868419 0
M  V30 23 C 1.713122 4.921648 -3.116183 0
M  V30 24 C 1.675393 4.693093 -1.733788 0
M  V30 25 C 1.908828 5.815884 -0.753532 0
M  V30 26 F 1.200972 5.667776 0.401569 0
M  V30 27 F 1.560725 7.036718 -1.246773 0
M  V30 28 F 3.213894 5.917968 -0.382917 0
M  V30 29 C 1.448222 3.387583 -1.269716 0
M  V30 30 C -1.220277 -2.515474 -0.313163 0
M  V30 31 C -2.611956 -2.550188 -0.543951 0
M  V30 32 O -3.239859 -1.359121 -0.788115 0
M  V30 33 C -4.611494 -1.404136 -1.166115 0
M  V30 34 C -3.249517 -3.778587 -0.475703 0
M  V30 35 N -2.631867 -4.945915 -0.200310 0
M  V30 36 C -1.312558 -4.927333 0.018890 0
M  V30 37 C -0.703320 -6.142567 0.299596 0
M  V30 38 C 0.665179 -6.246356 0.541279 0
M  V30 39 C 1.449569 -5.107017 0.499231 0
M  V30 40 C 0.858055 -3.874035 0.220128 0
M  V30 41 C -0.535940 -3.744138 -0.023588 0
M  V30 42 H 2.293125 -1.352662 6.018474 0
M  V30 43 H 1.565811 0.343847 6.200882 0
M  V30 44 H 1.515906 -1.495775 3.740979 0
M  V30 45 H 0.489598 1.373713 4.307137 0
M  V30 46 H 2.187118 0.483330 2.159379 0
M  V30 47 H 1.473631 2.054137 2.404603 0
M  V30 48 H -0.604241 2.675343 1.259249 0
M  V30 49 H -1.554910 1.454416 0.460464 0
M  V30 50 H -2.646875 1.115684 2.439172 0
M  V30 51 H -1.532965 2.187177 3.289495 0
M  V30 52 H -1.470796 -0.194135 4.188255 0
M  V30 53 H -1.983471 -1.144098 1.894909 0
M  V30 54 H -0.647315 -1.975401 2.686407 0
M  V30 55 H 0.940588 -1.216061 1.233928 0
M  V30 56 H -1.194083 -0.392223 -0.736304 0
M  V30 57 H 0.661406 -2.098710 -1.866798 0
M  V30 58 H 0.845775 1.058372 -0.576978 0
M  V30 59 H 1.047511 1.787469 -4.242017 0
M  V30 60 H 1.895205 5.929858 -3.492293 0
M  V30 61 H 1.438639 3.206450 -0.195626 0
M  V30 62 H -5.232960 -1.765585 -0.340514 0
M  V30 63 H -4.926982 -0.382318 -1.397758 0
M  V30 64 H -4.755363 -2.010313 -2.066648 0
M  V30 65 H -4.317095 -3.890736 -0.631517 0
M  V30 66 H -1.316244 -7.041239 0.328637 0
M  V30 67 H 1.109217 -7.214882 0.754667 0
M  V30 68 H 2.520420 -5.171824 0.676252 0
M  V30 69 H 1.521431 -3.014573 0.183802 0
M  V30 END ATOM
M  V30 BEGIN BOND
M  V30 1 2 1 2
M  V30 2 1 2 3
M  V30 3 1 3 4
M  V30 4 1 4 5
M  V30 5 1 5 6
M  V30 6 1 6 7
M  V30 7 1 7 8
M  V30 8 1 8 9
M  V30 9 1 9 10
M  V30 10 1 10 11
M  V30 11 1 11 12
M  V30 12 1 12 13
M  V30 13 2 13 14
M  V30 14 1 13 15
M  V30 15 1 15 16
M  V30 16 2 16 17
M  V30 17 1 17 18
M  V30 18 1 18 19
M  V30 19 1 19 20
M  V30 20 1 19 21
M  V30 21 1 19 22
M  V30 22 2 18 23
M  V30 23 1 23 24
M  V30 24 1 24 25
M  V30 25 1 25 26
M  V30 26 1 25 27
M  V30 27 1 25 28
M  V30 28 2 24 29
M  V30 29 1 11 30
M  V30 30 2 30 31
M  V30 31 1 31 32
M  V30 32 1 32 33
M  V30 33 1 31 34
M  V30 34 2 34 35
M  V30 35 1 35 36
M  V30 36 2 36 37
M  V30 37 1 37 38
M  V30 38 2 38 39
M  V30 39 1 39 40
M  V30 40 2 40 41
M  V30 41 1 8 3
M  V30 42 1 29 16
M  V30 43 1 41 30
M  V30 44 1 10 5
M  V30 45 1 41 36
M  V30 46 1 1 42
M  V30 47 1 1 43
M  V30 48 1 2 44
M  V30 49 1 3 45 CFG=1
M  V30 50 1 4 46
M  V30 51 1 4 47
M  V30 52 1 6 48
M  V30 53 1 6 49
M  V30 54 1 7 50
M  V30 55 1 7 51
M  V30 56 1 8 52 CFG=1
M  V30 57 1 9 53
M  V30 58 1 9 54
M  V30 59 1 10 55 CFG=1
M  V30 60 1 11 56 CFG=3
M  V30 61 1 12 57
M  V30 62 1 15 58
M  V30 63 1 17 59
M  V30 64 1 23 60
M  V30 65 1 29 61
M  V30 66 1 33 62
M  V30 67 1 33 63
M  V30 68 1 33 64
M  V30 69 1 34 65
M  V30 70 1 37 66
M  V30 71 1 38 67
M  V30 72 1 39 68
M  V30 73 1 40 69
M  V30 END BOND
M  V30 END CTAB
M  END
>  <catalyst_id>  (1) 
GVRPWBUQLQKLNX_IGEKPOMNSA_NONE

>  <source_smiles>  (1) 
C=C[C@H]1CN2CC[C@H]1C[C@H]2[C@@H](NC(=S)Nc1cc(C(F)(F)F)cc(C(F)(F)F)c1)c1c(OC)cnc2ccccc12

>  <axial_configuration>  (1) 
none

>  <inchikey>  (1) 
GVRPWBUQLQKLNX-IGEKPOMNSA-N

>  <build_source>  (1) 
smiles

>  <rdkit_version>  (1) 
2025.09.6

>  <random_seed>  (1) 
42

>  <generated_at>  (1) 
2026-05-19T12:34:40

$$$$
