catalyst249
     RDKit          3D

  0  0  0  0  0  0  0  0  0  0999 V3000
M  V30 BEGIN CTAB
M  V30 COUNTS 80 83 0 0 0
M  V30 BEGIN ATOM
M  V30 1 O 2.140402 -2.268392 -1.331901 0
M  V30 2 C 2.313978 -1.194829 -0.767864 0
M  V30 3 N 1.542658 -0.744741 0.280846 0
M  V30 4 C 0.413966 -1.508322 0.800875 0 CFG=1
M  V30 5 C 0.160515 -1.183380 2.282409 0
M  V30 6 C 1.345055 -1.473800 3.178020 0
M  V30 7 C 1.716254 -2.794502 3.463737 0
M  V30 8 C 2.818227 -3.058606 4.278451 0
M  V30 9 C 3.558447 -2.007275 4.815545 0
M  V30 10 C 3.197904 -0.690154 4.539136 0
M  V30 11 C 2.096360 -0.423258 3.724873 0
M  V30 12 C -0.833395 -1.342551 -0.083956 0
M  V30 13 P -1.690897 0.246500 -0.181730 0 CHG=1
M  V30 14 C -2.817095 0.328055 1.238248 0
M  V30 15 C -3.989399 -0.625586 1.244843 0
M  V30 16 C -3.913514 -1.858322 1.907111 0
M  V30 17 C -4.984456 -2.756028 1.874596 0
M  V30 18 C -6.148843 -2.434764 1.177973 0
M  V30 19 C -6.235231 -1.202744 0.520308 0
M  V30 20 N -7.456580 -0.855854 -0.213832 0 CHG=1
M  V30 21 O -7.607296 0.324234 -0.561441 0
M  V30 22 O -8.272221 -1.763318 -0.434026 0 CHG=-1
M  V30 23 C -5.166388 -0.297569 0.554952 0
M  V30 24 C -0.521708 1.576673 -0.175743 0
M  V30 25 C -0.307092 2.379181 0.949975 0
M  V30 26 C 0.651169 3.395354 0.928562 0
M  V30 27 C 1.399281 3.628807 -0.222752 0
M  V30 28 C 1.186594 2.849047 -1.355507 0
M  V30 29 C 0.234594 1.829505 -1.330113 0
M  V30 30 C -2.701724 0.323904 -1.644520 0
M  V30 31 C -3.187118 1.562109 -2.089097 0
M  V30 32 C -4.017696 1.644986 -3.207240 0
M  V30 33 C -4.377212 0.489082 -3.894413 0
M  V30 34 C -3.905595 -0.747944 -3.463250 0
M  V30 35 C -3.074548 -0.829886 -2.344261 0
M  V30 36 C 3.382111 -0.269027 -1.237747 0
M  V30 37 C 3.786949 -0.344417 -2.576206 0
M  V30 38 C 4.767836 0.524234 -3.078556 0
M  V30 39 C 5.205259 0.428467 -4.521661 0
M  V30 40 F 4.199015 0.061024 -5.360930 0
M  V30 41 F 5.680728 1.609211 -5.007398 0
M  V30 42 F 6.201696 -0.479424 -4.700917 0
M  V30 43 C 5.355125 1.459290 -2.208875 0
M  V30 44 C 4.978118 1.531582 -0.856718 0
M  V30 45 C 5.595231 2.561907 0.059492 0
M  V30 46 F 4.945495 3.756699 -0.005620 0
M  V30 47 F 6.897289 2.824797 -0.236567 0
M  V30 48 F 5.574857 2.195937 1.370631 0
M  V30 49 C 3.988329 0.657662 -0.379505 0
M  V30 50 Br 0.000000 0.000000 0.000000 0 CHG=-1
M  V30 51 H 1.600942 0.232581 0.537389 0
M  V30 52 H 0.701228 -2.566161 0.729214 0
M  V30 53 H -0.103056 -0.128285 2.397222 0
M  V30 54 H -0.694348 -1.760602 2.652670 0
M  V30 55 H 1.155034 -3.628263 3.047960 0
M  V30 56 H 3.101932 -4.086254 4.490626 0
M  V30 57 H 4.417517 -2.215178 5.447996 0
M  V30 58 H 3.776564 0.129288 4.957634 0
M  V30 59 H 1.832361 0.611292 3.519372 0
M  V30 60 H -0.537414 -1.588672 -1.111331 0
M  V30 61 H -1.566874 -2.102872 0.204639 0
M  V30 62 H -2.259213 0.204071 2.170318 0
M  V30 63 H -3.217105 1.349582 1.280887 0
M  V30 64 H -3.017733 -2.136026 2.457448 0
M  V30 65 H -4.908324 -3.709826 2.392541 0
M  V30 66 H -6.972462 -3.145222 1.159232 0
M  V30 67 H -5.237769 0.655346 0.032341 0
M  V30 68 H -0.880471 2.226384 1.859901 0
M  V30 69 H 0.807275 4.014082 1.809262 0
M  V30 70 H 2.139434 4.425457 -0.240634 0
M  V30 71 H 1.759258 3.033817 -2.260955 0
M  V30 72 H 0.082648 1.222178 -2.221437 0
M  V30 73 H -2.923566 2.474994 -1.559474 0
M  V30 74 H -4.387641 2.611662 -3.539042 0
M  V30 75 H -5.027075 0.551913 -4.763261 0
M  V30 76 H -4.188345 -1.651992 -3.996636 0
M  V30 77 H -2.734768 -1.809723 -2.020979 0
M  V30 78 H 3.325140 -1.081861 -3.234557 0
M  V30 79 H 6.122004 2.137628 -2.589010 0
M  V30 80 H 3.709392 0.697108 0.672429 0
M  V30 END ATOM
M  V30 BEGIN BOND
M  V30 1 2 1 2
M  V30 2 1 2 3
M  V30 3 1 3 4
M  V30 4 1 4 5
M  V30 5 1 5 6
M  V30 6 2 6 7
M  V30 7 1 7 8
M  V30 8 2 8 9
M  V30 9 1 9 10
M  V30 10 2 10 11
M  V30 11 1 4 12
M  V30 12 1 12 13
M  V30 13 1 13 14
M  V30 14 1 14 15
M  V30 15 2 15 16
M  V30 16 1 16 17
M  V30 17 2 17 18
M  V30 18 1 18 19
M  V30 19 1 19 20
M  V30 20 2 20 21
M  V30 21 1 20 22
M  V30 22 2 19 23
M  V30 23 1 13 24
M  V30 24 2 24 25
M  V30 25 1 25 26
M  V30 26 2 26 27
M  V30 27 1 27 28
M  V30 28 2 28 29
M  V30 29 1 13 30
M  V30 30 2 30 31
M  V30 31 1 31 32
M  V30 32 2 32 33
M  V30 33 1 33 34
M  V30 34 2 34 35
M  V30 35 1 2 36
M  V30 36 2 36 37
M  V30 37 1 37 38
M  V30 38 1 38 39
M  V30 39 1 39 40
M  V30 40 1 39 41
M  V30 41 1 39 42
M  V30 42 2 38 43
M  V30 43 1 43 44
M  V30 44 1 44 45
M  V30 45 1 45 46
M  V30 46 1 45 47
M  V30 47 1 45 48
M  V30 48 2 44 49
M  V30 49 1 11 6
M  V30 50 1 23 15
M  V30 51 1 29 24
M  V30 52 1 35 30
M  V30 53 1 49 36
M  V30 54 1 3 51
M  V30 55 1 4 52 CFG=1
M  V30 56 1 5 53
M  V30 57 1 5 54
M  V30 58 1 7 55
M  V30 59 1 8 56
M  V30 60 1 9 57
M  V30 61 1 10 58
M  V30 62 1 11 59
M  V30 63 1 12 60
M  V30 64 1 12 61
M  V30 65 1 14 62
M  V30 66 1 14 63
M  V30 67 1 16 64
M  V30 68 1 17 65
M  V30 69 1 18 66
M  V30 70 1 23 67
M  V30 71 1 25 68
M  V30 72 1 26 69
M  V30 73 1 27 70
M  V30 74 1 28 71
M  V30 75 1 29 72
M  V30 76 1 31 73
M  V30 77 1 32 74
M  V30 78 1 33 75
M  V30 79 1 34 76
M  V30 80 1 35 77
M  V30 81 1 37 78
M  V30 82 1 43 79
M  V30 83 1 49 80
M  V30 END BOND
M  V30 END CTAB
M  END
>  <catalyst_id>  (1) 
PBZUTPIGWJZWDL_YNMZEGNTSA_NONE

>  <source_smiles>  (1) 
O=C(N[C@@H](Cc1ccccc1)C[P+](Cc1cccc([N+](=O)[O-])c1)(c1ccccc1)c1ccccc1)c1cc(C(F)(F)F)cc(C(F)(F)F)c1.[Br-]

>  <axial_configuration>  (1) 
none

>  <inchikey>  (1) 
PBZUTPIGWJZWDL-YNMZEGNTSA-N

>  <build_source>  (1) 
smiles

>  <rdkit_version>  (1) 
2025.09.6

>  <random_seed>  (1) 
42

>  <generated_at>  (1) 
2026-05-19T12:34:21

$$$$
