catalyst360
     RDKit          3D

  0  0  0  0  0  0  0  0  0  0999 V3000
M  V30 BEGIN CTAB
M  V30 COUNTS 162 169 0 0 0
M  V30 BEGIN ATOM
M  V30 1 C -5.429947 -3.734382 -0.785361 0
M  V30 2 C -5.481589 -2.450773 -1.600921 0
M  V30 3 C -5.102174 -1.206338 -0.788528 0
M  V30 4 N -3.754685 -1.255311 -0.206261 0
M  V30 5 C -2.723690 -0.796185 -1.142949 0
M  V30 6 C -2.274620 -1.798219 -2.183556 0
M  V30 7 C -1.679915 -3.014444 -1.811874 0
M  V30 8 C -1.074209 -3.826114 -2.774832 0
M  V30 9 C -1.083810 -3.430323 -4.118896 0
M  V30 10 C -1.720642 -2.248663 -4.516944 0
M  V30 11 C -1.726559 -1.798841 -5.953685 0
M  V30 12 F -2.981506 -1.576825 -6.430448 0
M  V30 13 F -1.058177 -0.620052 -6.119671 0
M  V30 14 F -1.146310 -2.682353 -6.811187 0
M  V30 15 C -2.315136 -1.442531 -3.539692 0
M  V30 16 N -0.298287 -4.951773 -2.447677 0
M  V30 17 C -0.359061 -5.801203 -1.365936 0
M  V30 18 S -1.728075 -6.275894 -0.538169 0
M  V30 19 N 0.847475 -6.406130 -1.071056 0
M  V30 20 C 2.098737 -5.748984 -0.976324 0
M  V30 21 C 2.200840 -4.357509 -0.912298 0
M  V30 22 C 3.425544 -3.722684 -0.649970 0
M  V30 23 C 4.584600 -4.501048 -0.568303 0
M  V30 24 C 4.509109 -5.902554 -0.651280 0
M  V30 25 C 5.751162 -6.740288 -0.479706 0
M  V30 26 F 6.867154 -6.162936 -1.004465 0
M  V30 27 F 5.652913 -7.964857 -1.072119 0
M  V30 28 F 6.031467 -6.984182 0.829683 0
M  V30 29 C 3.253079 -6.517660 -0.821694 0
M  V30 30 C 3.425120 -2.220491 -0.435767 0
M  V30 31 N 4.311617 -1.715495 0.655545 0
M  V30 32 C 3.823720 -2.096439 2.016700 0
M  V30 33 C 2.762662 -3.198751 2.203655 0
M  V30 34 C 5.036036 -2.531852 2.852525 0
M  V30 35 C 4.462168 -0.202999 0.471935 0 CFG=2
M  V30 36 C 5.371963 0.075046 -0.759427 0
M  V30 37 C 6.855664 -0.057618 -0.447478 0
M  V30 38 C 7.287517 0.969644 0.582148 0
M  V30 39 C 6.473182 0.856270 1.861778 0
M  V30 40 C 4.938435 0.713144 1.700519 0 CFG=1
M  V30 41 N 4.168333 2.006954 1.764961 0
M  V30 42 C 3.823076 2.376177 3.165367 0
M  V30 43 C 3.586210 3.858604 3.495326 0
M  V30 44 C 2.545763 1.619545 3.572279 0
M  V30 45 C 4.675067 3.087557 0.917147 0
M  V30 46 C 3.570851 3.933838 0.305188 0
M  V30 47 C 2.578910 3.329786 -0.489906 0
M  V30 48 C 1.587972 4.087509 -1.112147 0
M  V30 49 C 1.541507 5.464328 -0.866730 0
M  V30 50 C 2.524699 6.097988 -0.087430 0
M  V30 51 C 2.457256 7.587387 0.136599 0
M  V30 52 F 3.571349 8.103934 0.725389 0
M  V30 53 F 1.412539 7.939552 0.935212 0
M  V30 54 F 2.291226 8.282825 -1.022627 0
M  V30 55 C 3.548039 5.324044 0.476699 0
M  V30 56 N 0.598496 3.553341 -1.967688 0
M  V30 57 C 0.641479 2.465766 -2.812287 0
M  V30 58 S 1.947294 1.498452 -3.211341 0
M  V30 59 N -0.515381 2.229882 -3.516446 0
M  V30 60 C -1.858218 2.520232 -3.211065 0
M  V30 61 C -2.315009 2.781100 -1.914858 0
M  V30 62 C -3.687577 2.930439 -1.654913 0
M  V30 63 C -4.593100 2.864933 -2.725630 0
M  V30 64 C -4.152928 2.606706 -4.030691 0
M  V30 65 C -5.134218 2.524976 -5.173488 0
M  V30 66 F -4.746349 1.643751 -6.137561 0
M  V30 67 F -6.379881 2.131380 -4.787868 0
M  V30 68 F -5.294261 3.719502 -5.804589 0
M  V30 69 C -2.780415 2.429215 -4.258844 0
M  V30 70 C -4.210512 3.086782 -0.237596 0
M  V30 71 N -4.655472 1.797002 0.328443 0
M  V30 72 C -5.883200 1.938262 1.134767 0
M  V30 73 C -7.164144 2.331785 0.374667 0
M  V30 74 C -7.621975 1.306481 -0.648598 0
M  V30 75 C -3.540462 1.092497 1.073974 0 CFG=1
M  V30 76 C -3.242509 1.713877 2.457323 0
M  V30 77 C -2.214503 2.666616 2.591128 0
M  V30 78 C -1.913625 3.232398 3.832349 0
M  V30 79 C -2.629720 2.852046 4.963453 0
M  V30 80 C -3.644272 1.905637 4.855430 0
M  V30 81 C -3.944199 1.336821 3.614882 0
M  V30 82 C -3.673975 -0.525400 1.103055 0 CFG=2
M  V30 83 C -2.617620 -1.262299 1.956639 0
M  V30 84 C -2.976384 -2.486425 2.551824 0
M  V30 85 C -2.073191 -3.195184 3.345840 0
M  V30 86 C -0.792626 -2.692758 3.556899 0
M  V30 87 C -0.409606 -1.498083 2.954123 0
M  V30 88 C -1.306443 -0.798382 2.144311 0
M  V30 89 H -4.416550 -3.951076 -0.437415 0
M  V30 90 H -5.762613 -4.580557 -1.394203 0
M  V30 91 H -6.087371 -3.668511 0.087749 0
M  V30 92 H -4.854113 -2.553116 -2.489603 0
M  V30 93 H -6.505948 -2.318314 -1.971652 0
M  V30 94 H -5.855134 -1.128191 0.005328 0
M  V30 95 H -5.226008 -0.320164 -1.419155 0
M  V30 96 H -3.053901 0.119252 -1.639294 0
M  V30 97 H -1.799913 -0.525552 -0.617604 0
M  V30 98 H -1.620106 -3.257585 -0.752131 0
M  V30 99 H -0.591201 -4.049500 -4.868038 0
M  V30 100 H -2.782947 -0.505109 -3.833678 0
M  V30 101 H 0.383330 -5.242170 -3.138961 0
M  V30 102 H 0.773977 -7.272317 -0.546952 0
M  V30 103 H 1.308010 -3.738365 -0.950809 0
M  V30 104 H 5.543816 -4.014552 -0.386213 0
M  V30 105 H 3.188823 -7.604710 -0.844566 0
M  V30 106 H 2.402712 -1.860392 -0.258037 0
M  V30 107 H 3.699690 -1.819665 -1.414491 0
M  V30 108 H 3.339618 -1.232907 2.474972 0
M  V30 109 H 1.850783 -2.991269 1.639051 0
M  V30 110 H 2.462957 -3.248432 3.257457 0
M  V30 111 H 3.137904 -4.193696 1.948247 0
M  V30 112 H 5.834668 -1.792201 2.856129 0
M  V30 113 H 4.746262 -2.693804 3.896643 0
M  V30 114 H 5.459559 -3.470720 2.474629 0
M  V30 115 H 3.450468 0.149506 0.225917 0
M  V30 116 H 5.159894 -0.583327 -1.604264 0
M  V30 117 H 5.162845 1.073357 -1.155636 0
M  V30 118 H 7.076874 -1.069601 -0.087846 0
M  V30 119 H 7.436202 0.088134 -1.366147 0
M  V30 120 H 7.209786 1.977102 0.161075 0
M  V30 121 H 8.349344 0.825860 0.816620 0
M  V30 122 H 6.712372 1.702846 2.517919 0
M  V30 123 H 6.846012 -0.022157 2.400060 0
M  V30 124 H 4.648426 0.190281 2.609659 0
M  V30 125 H 4.639972 2.062611 3.829236 0
M  V30 126 H 4.463321 4.474190 3.275376 0
M  V30 127 H 2.714652 4.259534 2.969121 0
M  V30 128 H 3.389986 3.977635 4.567717 0
M  V30 129 H 1.714112 1.857964 2.899476 0
M  V30 130 H 2.241196 1.888186 4.590540 0
M  V30 131 H 2.687620 0.537406 3.565976 0
M  V30 132 H 5.209265 2.703777 0.049202 0
M  V30 133 H 5.413225 3.701515 1.446357 0
M  V30 134 H 2.596589 2.249438 -0.588482 0
M  V30 135 H 0.758202 6.074329 -1.315212 0
M  V30 136 H 4.322325 5.806816 1.072944 0
M  V30 137 H -0.123273 4.209185 -2.242178 0
M  V30 138 H -0.359162 1.666107 -4.348919 0
M  V30 139 H -1.625287 2.772643 -1.074322 0
M  V30 140 H -5.659322 2.978963 -2.533686 0
M  V30 141 H -2.436013 2.214527 -5.270541 0
M  V30 142 H -3.465268 3.594424 0.382310 0
M  V30 143 H -5.029164 3.813008 -0.293736 0
M  V30 144 H -5.734378 2.688466 1.921639 0
M  V30 145 H -6.106002 0.987402 1.632448 0
M  V30 146 H -7.968785 2.456528 1.111245 0
M  V30 147 H -7.056533 3.305191 -0.113335 0
M  V30 148 H -7.783476 0.331203 -0.182096 0
M  V30 149 H -8.566266 1.622895 -1.104386 0
M  V30 150 H -6.892681 1.194293 -1.453287 0
M  V30 151 H -2.628740 1.262459 0.490245 0
M  V30 152 H -1.624798 2.970350 1.728915 0
M  V30 153 H -1.116141 3.966341 3.917219 0
M  V30 154 H -2.394185 3.288918 5.930290 0
M  V30 155 H -4.201297 1.597882 5.737674 0
M  V30 156 H -4.733170 0.590557 3.571417 0
M  V30 157 H -4.608485 -0.723585 1.645642 0
M  V30 158 H -3.969433 -2.900562 2.386722 0
M  V30 159 H -2.371316 -4.138670 3.795554 0
M  V30 160 H -0.090530 -3.240723 4.178872 0
M  V30 161 H 0.593061 -1.107827 3.108154 0
M  V30 162 H -0.958410 0.115467 1.672145 0
M  V30 END ATOM
M  V30 BEGIN BOND
M  V30 1 1 1 2
M  V30 2 1 2 3
M  V30 3 1 3 4
M  V30 4 1 4 5
M  V30 5 1 5 6
M  V30 6 1 6 7
M  V30 7 2 7 8
M  V30 8 1 8 9
M  V30 9 2 9 10
M  V30 10 1 10 11
M  V30 11 1 11 12
M  V30 12 1 11 13
M  V30 13 1 11 14
M  V30 14 1 10 15
M  V30 15 1 8 16
M  V30 16 1 16 17
M  V30 17 2 17 18
M  V30 18 1 17 19
M  V30 19 1 19 20
M  V30 20 1 20 21
M  V30 21 2 21 22
M  V30 22 1 22 23
M  V30 23 2 23 24
M  V30 24 1 24 25
M  V30 25 1 25 26
M  V30 26 1 25 27
M  V30 27 1 25 28
M  V30 28 1 24 29
M  V30 29 1 22 30
M  V30 30 1 30 31
M  V30 31 1 31 32
M  V30 32 1 32 33
M  V30 33 1 32 34
M  V30 34 1 31 35
M  V30 35 1 35 36
M  V30 36 1 36 37
M  V30 37 1 37 38
M  V30 38 1 38 39
M  V30 39 1 39 40
M  V30 40 1 40 41
M  V30 41 1 41 42
M  V30 42 1 42 43
M  V30 43 1 42 44
M  V30 44 1 41 45
M  V30 45 1 45 46
M  V30 46 1 46 47
M  V30 47 2 47 48
M  V30 48 1 48 49
M  V30 49 2 49 50
M  V30 50 1 50 51
M  V30 51 1 51 52
M  V30 52 1 51 53
M  V30 53 1 51 54
M  V30 54 1 50 55
M  V30 55 1 48 56
M  V30 56 1 56 57
M  V30 57 2 57 58
M  V30 58 1 57 59
M  V30 59 1 59 60
M  V30 60 1 60 61
M  V30 61 2 61 62
M  V30 62 1 62 63
M  V30 63 2 63 64
M  V30 64 1 64 65
M  V30 65 1 65 66
M  V30 66 1 65 67
M  V30 67 1 65 68
M  V30 68 1 64 69
M  V30 69 1 62 70
M  V30 70 1 70 71
M  V30 71 1 71 72
M  V30 72 1 72 73
M  V30 73 1 73 74
M  V30 74 1 71 75
M  V30 75 1 75 76
M  V30 76 2 76 77
M  V30 77 1 77 78
M  V30 78 2 78 79
M  V30 79 1 79 80
M  V30 80 2 80 81
M  V30 81 1 75 82
M  V30 82 1 82 83
M  V30 83 2 83 84
M  V30 84 1 84 85
M  V30 85 2 85 86
M  V30 86 1 86 87
M  V30 87 2 87 88
M  V30 88 1 82 4
M  V30 89 1 88 83
M  V30 90 2 15 6
M  V30 91 2 29 20
M  V30 92 1 40 35
M  V30 93 2 55 46
M  V30 94 2 69 60
M  V30 95 1 81 76
M  V30 96 1 1 89
M  V30 97 1 1 90
M  V30 98 1 1 91
M  V30 99 1 2 92
M  V30 100 1 2 93
M  V30 101 1 3 94
M  V30 102 1 3 95
M  V30 103 1 5 96
M  V30 104 1 5 97
M  V30 105 1 7 98
M  V30 106 1 9 99
M  V30 107 1 15 100
M  V30 108 1 16 101
M  V30 109 1 19 102
M  V30 110 1 21 103
M  V30 111 1 23 104
M  V30 112 1 29 105
M  V30 113 1 30 106
M  V30 114 1 30 107
M  V30 115 1 32 108
M  V30 116 1 33 109
M  V30 117 1 33 110
M  V30 118 1 33 111
M  V30 119 1 34 112
M  V30 120 1 34 113
M  V30 121 1 34 114
M  V30 122 1 35 115 CFG=3
M  V30 123 1 36 116
M  V30 124 1 36 117
M  V30 125 1 37 118
M  V30 126 1 37 119
M  V30 127 1 38 120
M  V30 128 1 38 121
M  V30 129 1 39 122
M  V30 130 1 39 123
M  V30 131 1 40 124 CFG=1
M  V30 132 1 42 125
M  V30 133 1 43 126
M  V30 134 1 43 127
M  V30 135 1 43 128
M  V30 136 1 44 129
M  V30 137 1 44 130
M  V30 138 1 44 131
M  V30 139 1 45 132
M  V30 140 1 45 133
M  V30 141 1 47 134
M  V30 142 1 49 135
M  V30 143 1 55 136
M  V30 144 1 56 137
M  V30 145 1 59 138
M  V30 146 1 61 139
M  V30 147 1 63 140
M  V30 148 1 69 141
M  V30 149 1 70 142
M  V30 150 1 70 143
M  V30 151 1 72 144
M  V30 152 1 72 145
M  V30 153 1 73 146
M  V30 154 1 73 147
M  V30 155 1 74 148
M  V30 156 1 74 149
M  V30 157 1 74 150
M  V30 158 1 75 151 CFG=3
M  V30 159 1 77 152
M  V30 160 1 78 153
M  V30 161 1 79 154
M  V30 162 1 80 155
M  V30 163 1 81 156
M  V30 164 1 82 157 CFG=1
M  V30 165 1 84 158
M  V30 166 1 85 159
M  V30 167 1 86 160
M  V30 168 1 87 161
M  V30 169 1 88 162
M  V30 END BOND
M  V30 END CTAB
M  END
>  <catalyst_id>  (1) 
VGJYOGWUHMHOFP_GFNONAECSA_NONE

>  <source_smiles>  (1) 
CCCN1Cc2cc(cc(C(F)(F)F)c2)NC(=S)Nc2cc(cc(C(F)(F)F)c2)CN(C(C)C)[C@@H]2CCCC[C@H]2N(C(C)C)Cc2cc(cc(C(F)(F)F)c2)NC(=S)Nc2cc(cc(C(F)(F)F)c2)CN(CCC)[C@@H](c2ccccc2)[C@@H]1c1ccccc1

>  <axial_configuration>  (1) 
none

>  <inchikey>  (1) 
VGJYOGWUHMHOFP-GFNONAECSA-N

>  <build_source>  (1) 
smiles

>  <rdkit_version>  (1) 
2025.09.6

>  <random_seed>  (1) 
42

>  <generated_at>  (1) 
2026-05-19T12:38:22

$$$$
