catalyst281
     RDKit          3D

  0  0  0  0  0  0  0  0  0  0999 V3000
M  V30 BEGIN CTAB
M  V30 COUNTS 49 50 0 0 0
M  V30 BEGIN ATOM
M  V30 1 C 0.175567 -1.718645 -2.381997 0
M  V30 2 C -0.701356 -0.530648 -1.927983 0
M  V30 3 C -0.436061 0.647054 -2.901814 0
M  V30 4 C -2.191389 -0.919173 -2.036989 0
M  V30 5 Si -0.229980 0.040622 -0.072047 0 VAL=4
M  V30 6 O 1.394490 0.422730 0.047525 0
M  V30 7 C 2.346438 -0.576586 0.424089 0
M  V30 8 C 3.768358 -0.083941 0.103920 0 CFG=2
M  V30 9 N 4.009953 1.303029 0.577658 0
M  V30 10 C 3.997079 -0.174060 -1.405052 0
M  V30 11 O 3.968302 0.738018 -2.217222 0
M  V30 12 O 4.232727 -1.437683 -1.821491 0
M  V30 13 C -0.657154 -1.145288 1.334559 0
M  V30 14 C -1.035451 -2.480482 1.117136 0
M  V30 15 C -1.328819 -3.331094 2.188291 0
M  V30 16 C -1.246857 -2.866584 3.497369 0
M  V30 17 C -0.869937 -1.550266 3.739318 0
M  V30 18 C -0.575924 -0.699248 2.671034 0
M  V30 19 C -1.185007 1.636855 0.340704 0
M  V30 20 C -2.532609 1.599504 0.743906 0
M  V30 21 C -3.222670 2.778280 1.036557 0
M  V30 22 C -2.581290 4.009800 0.929554 0
M  V30 23 C -1.248361 4.066106 0.530417 0
M  V30 24 C -0.553605 2.890317 0.237660 0
M  V30 25 H 0.058448 -2.593115 -1.736288 0
M  V30 26 H 1.238432 -1.452960 -2.389232 0
M  V30 27 H -0.086735 -2.029841 -3.400108 0
M  V30 28 H 0.609681 0.974639 -2.863291 0
M  V30 29 H -0.651488 0.354614 -3.936307 0
M  V30 30 H -1.065781 1.514079 -2.671968 0
M  V30 31 H -2.448519 -1.758132 -1.383914 0
M  V30 32 H -2.848364 -0.082496 -1.775265 0
M  V30 33 H -2.441231 -1.218294 -3.061836 0
M  V30 34 H 2.149823 -1.525817 -0.089810 0
M  V30 35 H 2.270096 -0.743678 1.505829 0
M  V30 36 H 4.505647 -0.733417 0.589060 0
M  V30 37 H 3.486794 1.919039 -0.053816 0
M  V30 38 H 3.549449 1.421021 1.479724 0
M  V30 39 H 4.383881 -1.331046 -2.784977 0
M  V30 40 H -1.113255 -2.893803 0.116000 0
M  V30 41 H -1.623035 -4.360244 1.997328 0
M  V30 42 H -1.477055 -3.529114 4.327226 0
M  V30 43 H -0.805173 -1.180799 4.759526 0
M  V30 44 H -0.283965 0.326721 2.898340 0
M  V30 45 H -3.062211 0.652749 0.841382 0
M  V30 46 H -4.262552 2.733365 1.349528 0
M  V30 47 H -3.119975 4.925552 1.157138 0
M  V30 48 H -0.746719 5.026547 0.445185 0
M  V30 49 H 0.487363 2.965817 -0.074552 0
M  V30 END ATOM
M  V30 BEGIN BOND
M  V30 1 1 1 2
M  V30 2 1 2 3
M  V30 3 1 2 4
M  V30 4 1 2 5
M  V30 5 1 5 6
M  V30 6 1 6 7
M  V30 7 1 7 8
M  V30 8 1 8 9
M  V30 9 1 8 10
M  V30 10 2 10 11
M  V30 11 1 10 12
M  V30 12 1 5 13
M  V30 13 2 13 14
M  V30 14 1 14 15
M  V30 15 2 15 16
M  V30 16 1 16 17
M  V30 17 2 17 18
M  V30 18 1 5 19
M  V30 19 2 19 20
M  V30 20 1 20 21
M  V30 21 2 21 22
M  V30 22 1 22 23
M  V30 23 2 23 24
M  V30 24 1 18 13
M  V30 25 1 24 19
M  V30 26 1 1 25
M  V30 27 1 1 26
M  V30 28 1 1 27
M  V30 29 1 3 28
M  V30 30 1 3 29
M  V30 31 1 3 30
M  V30 32 1 4 31
M  V30 33 1 4 32
M  V30 34 1 4 33
M  V30 35 1 7 34
M  V30 36 1 7 35
M  V30 37 1 8 36 CFG=1
M  V30 38 1 9 37
M  V30 39 1 9 38
M  V30 40 1 12 39
M  V30 41 1 14 40
M  V30 42 1 15 41
M  V30 43 1 16 42
M  V30 44 1 17 43
M  V30 45 1 18 44
M  V30 46 1 20 45
M  V30 47 1 21 46
M  V30 48 1 22 47
M  V30 49 1 23 48
M  V30 50 1 24 49
M  V30 END BOND
M  V30 END CTAB
M  END
>  <catalyst_id>  (1) 
QPDMZTKHTFOAPP_KRWDZBQOSA_NONE

>  <source_smiles>  (1) 
CC(C)(C)[Si](OC[C@H](N)C(=O)O)(c1ccccc1)c1ccccc1

>  <axial_configuration>  (1) 
none

>  <inchikey>  (1) 
QPDMZTKHTFOAPP-KRWDZBQOSA-N

>  <build_source>  (1) 
smiles

>  <rdkit_version>  (1) 
2025.09.6

>  <random_seed>  (1) 
42

>  <generated_at>  (1) 
2026-05-19T12:29:58

$$$$
