catalyst43
     RDKit          3D

  0  0  0  0  0  0  0  0  0  0999 V3000
M  V30 BEGIN CTAB
M  V30 COUNTS 46 49 0 0 0
M  V30 BEGIN ATOM
M  V30 1 N -1.065750 1.161998 2.162913 0
M  V30 2 C -1.370371 0.185377 1.095783 0 CFG=1
M  V30 3 C -2.629617 0.625362 0.354136 0
M  V30 4 C -2.743571 1.920883 -0.176644 0
M  V30 5 C -3.890295 2.307438 -0.871867 0
M  V30 6 C -4.936228 1.404216 -1.048343 0
M  V30 7 C -4.837171 0.114824 -0.529470 0
M  V30 8 C -3.691761 -0.273189 0.168019 0
M  V30 9 C -0.185096 -0.137359 0.071129 0 CFG=2
M  V30 10 C -0.452184 -1.543385 -0.500802 0
M  V30 11 C -0.206651 -2.698835 0.261047 0
M  V30 12 C -0.469742 -3.964932 -0.262864 0
M  V30 13 C -0.984958 -4.093018 -1.551063 0
M  V30 14 C -1.236926 -2.956448 -2.317097 0
M  V30 15 C -0.972712 -1.688564 -1.796797 0
M  V30 16 N 1.204815 -0.019599 0.611834 0
M  V30 17 C 2.227640 -0.497029 -0.366252 0
M  V30 18 C 3.401892 0.411166 -0.201597 0
M  V30 19 C 4.686490 0.289126 -0.702705 0
M  V30 20 C 5.598793 1.311958 -0.433750 0
M  V30 21 C 5.213013 2.434270 0.316989 0
M  V30 22 C 3.910498 2.546851 0.808583 0
M  V30 23 C 3.019922 1.521173 0.540832 0
M  V30 24 C 1.579678 1.390051 0.924675 0
M  V30 25 H -0.336706 0.744432 2.742246 0
M  V30 26 H -1.887603 1.238692 2.761418 0
M  V30 27 H -1.610662 -0.736270 1.643412 0
M  V30 28 H -1.935209 2.637005 -0.041048 0
M  V30 29 H -3.966853 3.314403 -1.273304 0
M  V30 30 H -5.828947 1.705331 -1.589881 0
M  V30 31 H -5.651201 -0.591509 -0.669769 0
M  V30 32 H -3.628277 -1.288130 0.555492 0
M  V30 33 H -0.253907 0.572767 -0.766271 0
M  V30 34 H 0.202506 -2.611584 1.265905 0
M  V30 35 H -0.270219 -4.851005 0.333980 0
M  V30 36 H -1.190189 -5.079337 -1.958713 0
M  V30 37 H -1.642480 -3.056291 -3.320584 0
M  V30 38 H -1.185850 -0.812259 -2.405859 0
M  V30 39 H 1.885992 -0.413735 -1.405131 0
M  V30 40 H 2.507527 -1.531251 -0.143257 0
M  V30 41 H 4.979681 -0.574946 -1.289646 0
M  V30 42 H 6.615904 1.241570 -0.811297 0
M  V30 43 H 5.935047 3.222618 0.514940 0
M  V30 44 H 3.608978 3.414757 1.385618 0
M  V30 45 H 0.997477 2.119536 0.349691 0
M  V30 46 H 1.485285 1.582869 1.996516 0
M  V30 END ATOM
M  V30 BEGIN BOND
M  V30 1 1 1 2
M  V30 2 1 2 3
M  V30 3 2 3 4
M  V30 4 1 4 5
M  V30 5 2 5 6
M  V30 6 1 6 7
M  V30 7 2 7 8
M  V30 8 1 2 9
M  V30 9 1 9 10
M  V30 10 2 10 11
M  V30 11 1 11 12
M  V30 12 2 12 13
M  V30 13 1 13 14
M  V30 14 2 14 15
M  V30 15 1 9 16
M  V30 16 1 16 17
M  V30 17 1 17 18
M  V30 18 2 18 19
M  V30 19 1 19 20
M  V30 20 2 20 21
M  V30 21 1 21 22
M  V30 22 2 22 23
M  V30 23 1 23 24
M  V30 24 1 8 3
M  V30 25 1 15 10
M  V30 26 1 24 16
M  V30 27 1 23 18
M  V30 28 1 1 25
M  V30 29 1 1 26
M  V30 30 1 2 27 CFG=1
M  V30 31 1 4 28
M  V30 32 1 5 29
M  V30 33 1 6 30
M  V30 34 1 7 31
M  V30 35 1 8 32
M  V30 36 1 9 33 CFG=3
M  V30 37 1 11 34
M  V30 38 1 12 35
M  V30 39 1 13 36
M  V30 40 1 14 37
M  V30 41 1 15 38
M  V30 42 1 17 39
M  V30 43 1 17 40
M  V30 44 1 19 41
M  V30 45 1 20 42
M  V30 46 1 21 43
M  V30 47 1 22 44
M  V30 48 1 24 45
M  V30 49 1 24 46
M  V30 END BOND
M  V30 END CTAB
M  END
>  <catalyst_id>  (1) 
DQHHKQLDUGQQLC_VXKWHMMOSA_NONE

>  <source_smiles>  (1) 
N[C@@H](c1ccccc1)[C@H](c1ccccc1)N1Cc2ccccc2C1

>  <axial_configuration>  (1) 
none

>  <inchikey>  (1) 
DQHHKQLDUGQQLC-VXKWHMMOSA-N

>  <build_source>  (1) 
smiles

>  <rdkit_version>  (1) 
2025.09.6

>  <random_seed>  (1) 
42

>  <generated_at>  (1) 
2026-05-19T12:37:17

$$$$
