catalyst54
     RDKit          3D

  0  0  0  0  0  0  0  0  0  0999 V3000
M  V30 BEGIN CTAB
M  V30 COUNTS 126 137 0 0 0
M  V30 BEGIN ATOM
M  V30 1 C -7.350556 -0.678286 3.632481 0
M  V30 2 C -6.268451 -0.046579 3.158494 0
M  V30 3 C -4.889899 -0.663221 3.101264 0 CFG=1
M  V30 4 C -4.303835 -0.675762 1.673238 0
M  V30 5 N -2.899174 -0.082400 1.676065 0 CFG=2 CHG=1
M  V30 6 C -2.268548 -0.179005 0.251043 0
M  V30 7 C -1.877997 -1.548992 -0.265972 0
M  V30 8 C -2.841829 -2.308522 -0.961415 0
M  V30 9 C -2.542793 -3.555769 -1.510653 0
M  V30 10 C -3.544265 -4.305750 -2.157379 0
M  V30 11 C -3.258185 -5.541729 -2.733774 0
M  V30 12 C -1.963777 -6.035970 -2.679914 0
M  V30 13 C -0.965403 -5.293938 -2.044287 0
M  V30 14 C -1.223755 -4.041048 -1.435204 0
M  V30 15 C -0.224218 -3.248399 -0.770156 0
M  V30 16 C 1.219215 -3.708320 -0.791358 0
M  V30 17 C 2.043923 -3.356918 -1.924224 0
M  V30 18 O 1.603882 -3.016282 -3.083124 0 CHG=-1
M  V30 19 C 3.426527 -3.326231 -1.651676 0
M  V30 20 C 4.327662 -2.591333 -2.609793 0
M  V30 21 N 4.828634 -1.137847 -2.255411 0 CFG=1 CHG=1
M  V30 22 C 5.889301 -0.853383 -3.333191 0
M  V30 23 C 6.519675 0.515620 -3.128051 0
M  V30 24 C 5.925643 1.185112 -1.895158 0 CFG=1
M  V30 25 C 4.424117 1.350516 -2.153597 0
M  V30 26 C 3.696081 -0.005677 -2.376739 0 CFG=2
M  V30 27 C 2.425493 -0.100630 -1.455263 0 CFG=1
M  V30 28 O 2.724012 -0.021782 -0.062986 0
M  V30 29 C 1.310397 0.880924 -1.861705 0
M  V30 30 C 0.478242 0.440566 -2.905851 0
M  V30 31 C -0.557346 1.238574 -3.338809 0
M  V30 32 N -0.820994 2.457198 -2.832281 0
M  V30 33 C -0.044418 2.896741 -1.831390 0
M  V30 34 C -0.336768 4.157022 -1.329083 0
M  V30 35 C 0.360120 4.712400 -0.257618 0
M  V30 36 C 1.379224 3.988001 0.333490 0
M  V30 37 C 1.705462 2.726006 -0.166951 0
M  V30 38 C 1.025633 2.149509 -1.271930 0
M  V30 39 C 6.188216 0.267410 -0.678243 0 CFG=1
M  V30 40 C 5.845238 0.933218 0.632520 0
M  V30 41 C 6.751782 1.340911 1.530561 0
M  V30 42 C 5.459473 -1.084454 -0.869903 0
M  V30 43 C 3.971117 -3.942735 -0.507134 0
M  V30 44 C 3.158843 -4.488875 0.486825 0
M  V30 45 C 3.726447 -5.124647 1.608016 0
M  V30 46 C 2.925642 -5.614435 2.638111 0
M  V30 47 C 1.548837 -5.462043 2.564385 0
M  V30 48 C 0.981095 -4.831053 1.454864 0
M  V30 49 C 1.764530 -4.341837 0.379981 0
M  V30 50 C -0.549203 -2.007849 -0.082230 0
M  V30 51 O 0.279468 -1.336364 0.637882 0 CHG=-1
M  V30 52 C -2.015592 -0.903990 2.651279 0
M  V30 53 C -2.602652 -0.805087 4.062788 0
M  V30 54 C -3.893037 0.020067 4.060209 0 CFG=1
M  V30 55 C -3.538009 1.430246 3.569029 0
M  V30 56 C -2.867338 1.408811 2.170983 0 CFG=2
M  V30 57 C -3.498394 2.448072 1.165045 0 CFG=1
M  V30 58 O -4.922600 2.272408 1.137775 0
M  V30 59 C -3.175205 3.933168 1.351669 0
M  V30 60 C -2.538503 4.411465 2.502584 0
M  V30 61 C -2.285469 5.765252 2.621723 0
M  V30 62 N -2.613229 6.674039 1.688563 0
M  V30 63 C -3.208412 6.244073 0.568780 0
M  V30 64 C -3.523374 7.193155 -0.393739 0
M  V30 65 C -4.128513 6.848317 -1.601586 0
M  V30 66 C -4.427191 5.520731 -1.859584 0
M  V30 67 C -4.124703 4.548715 -0.905577 0
M  V30 68 C -3.514393 4.881311 0.332307 0
M  V30 69 H -8.319367 -0.186323 3.645996 0
M  V30 70 H -7.305400 -1.692355 4.019041 0
M  V30 71 H -6.391076 0.968448 2.785944 0
M  V30 72 H -4.987012 -1.712277 3.418177 0
M  V30 73 H -4.909131 -0.134740 0.940685 0
M  V30 74 H -4.223390 -1.714784 1.336800 0
M  V30 75 H -3.012680 0.236836 -0.439357 0
M  V30 76 H -1.420754 0.516002 0.232042 0
M  V30 77 H -3.843913 -1.907565 -1.087314 0
M  V30 78 H -4.559336 -3.924029 -2.223859 0
M  V30 79 H -4.037072 -6.106565 -3.235901 0
M  V30 80 H -1.712747 -6.985725 -3.141743 0
M  V30 81 H 0.049689 -5.688133 -2.041886 0
M  V30 82 H 5.239971 -3.197413 -2.706230 0
M  V30 83 H 3.927470 -2.524476 -3.627570 0
M  V30 84 H 5.402623 -0.917963 -4.313490 0
M  V30 85 H 6.655408 -1.635173 -3.266652 0
M  V30 86 H 7.606768 0.412387 -3.024569 0
M  V30 87 H 6.359640 1.135527 -4.018822 0
M  V30 88 H 6.391258 2.167067 -1.748762 0
M  V30 89 H 3.998868 1.911594 -1.321774 0
M  V30 90 H 4.266071 1.981439 -3.038307 0
M  V30 91 H 3.373267 -0.068930 -3.424118 0
M  V30 92 H 1.996207 -1.071582 -1.587655 0
M  V30 93 H 1.963635 -0.542855 0.331363 0
M  V30 94 H 0.604964 -0.547021 -3.347211 0
M  V30 95 H -1.221401 0.899271 -4.128265 0
M  V30 96 H -1.139040 4.728960 -1.789866 0
M  V30 97 H 0.095978 5.700633 0.109803 0
M  V30 98 H 1.927564 4.395877 1.178081 0
M  V30 99 H 2.501714 2.187465 0.336902 0
M  V30 100 H 7.266179 0.047877 -0.658448 0
M  V30 101 H 4.789950 1.075604 0.864654 0
M  V30 102 H 6.434238 1.804487 2.460658 0
M  V30 103 H 7.818947 1.226704 1.370141 0
M  V30 104 H 6.193703 -1.898049 -0.822400 0
M  V30 105 H 4.694422 -1.277657 -0.116824 0
M  V30 106 H 5.049313 -3.987424 -0.389259 0
M  V30 107 H 4.804335 -5.235805 1.687026 0
M  V30 108 H 3.376340 -6.102596 3.496296 0
M  V30 109 H 0.909069 -5.827699 3.361002 0
M  V30 110 H -0.100136 -4.718047 1.417448 0
M  V30 111 H -2.012060 -1.949154 2.329046 0
M  V30 112 H -1.011751 -0.473267 2.644777 0
M  V30 113 H -1.863943 -0.355650 4.738058 0
M  V30 114 H -2.792646 -1.812450 4.453234 0
M  V30 115 H -4.302908 0.069411 5.075996 0
M  V30 116 H -4.424556 2.072853 3.586225 0
M  V30 117 H -2.841040 1.879549 4.287930 0
M  V30 118 H -1.799139 1.642437 2.273760 0
M  V30 119 H -3.123864 2.208680 0.167580 0
M  V30 120 H -5.344687 3.149343 1.085202 0
M  V30 121 H -2.216380 3.774763 3.315199 0
M  V30 122 H -1.792366 6.167686 3.502910 0
M  V30 123 H -3.283332 8.236493 -0.199456 0
M  V30 124 H -4.354347 7.616267 -2.336767 0
M  V30 125 H -4.884329 5.235345 -2.804236 0
M  V30 126 H -4.359616 3.517662 -1.161780 0
M  V30 END ATOM
M  V30 BEGIN BOND
M  V30 1 2 1 2
M  V30 2 1 2 3
M  V30 3 1 3 4
M  V30 4 1 4 5
M  V30 5 1 5 6 CFG=3
M  V30 6 1 6 7
M  V30 7 2 7 8
M  V30 8 1 8 9
M  V30 9 2 9 10
M  V30 10 1 10 11
M  V30 11 2 11 12
M  V30 12 1 12 13
M  V30 13 2 13 14
M  V30 14 1 14 15
M  V30 15 1 15 16
M  V30 16 2 16 17
M  V30 17 1 17 18
M  V30 18 1 17 19
M  V30 19 1 19 20
M  V30 20 1 21 20 CFG=3
M  V30 21 1 21 22
M  V30 22 1 22 23
M  V30 23 1 23 24
M  V30 24 1 24 25
M  V30 25 1 25 26
M  V30 26 1 26 27
M  V30 27 1 27 28
M  V30 28 1 27 29
M  V30 29 2 29 30
M  V30 30 1 30 31
M  V30 31 2 31 32
M  V30 32 1 32 33
M  V30 33 2 33 34
M  V30 34 1 34 35
M  V30 35 2 35 36
M  V30 36 1 36 37
M  V30 37 2 37 38
M  V30 38 1 24 39
M  V30 39 1 39 40
M  V30 40 2 40 41
M  V30 41 1 39 42
M  V30 42 2 19 43
M  V30 43 1 43 44
M  V30 44 2 44 45
M  V30 45 1 45 46
M  V30 46 2 46 47
M  V30 47 1 47 48
M  V30 48 2 48 49
M  V30 49 2 15 50
M  V30 50 1 50 51
M  V30 51 1 5 52
M  V30 52 1 52 53
M  V30 53 1 53 54
M  V30 54 1 54 55
M  V30 55 1 55 56
M  V30 56 1 56 57
M  V30 57 1 57 58
M  V30 58 1 57 59
M  V30 59 2 59 60
M  V30 60 1 60 61
M  V30 61 2 61 62
M  V30 62 1 62 63
M  V30 63 2 63 64
M  V30 64 1 64 65
M  V30 65 2 65 66
M  V30 66 1 66 67
M  V30 67 2 67 68
M  V30 68 1 54 3
M  V30 69 1 68 59
M  V30 70 1 56 5
M  V30 71 1 68 63
M  V30 72 1 50 7
M  V30 73 1 14 9
M  V30 74 1 49 16
M  V30 75 1 26 21
M  V30 76 1 38 29
M  V30 77 1 49 44
M  V30 78 1 42 21
M  V30 79 1 38 33
M  V30 80 1 1 69
M  V30 81 1 1 70
M  V30 82 1 2 71
M  V30 83 1 3 72 CFG=1
M  V30 84 1 4 73
M  V30 85 1 4 74
M  V30 86 1 6 75
M  V30 87 1 6 76
M  V30 88 1 8 77
M  V30 89 1 10 78
M  V30 90 1 11 79
M  V30 91 1 12 80
M  V30 92 1 13 81
M  V30 93 1 20 82
M  V30 94 1 20 83
M  V30 95 1 22 84
M  V30 96 1 22 85
M  V30 97 1 23 86
M  V30 98 1 23 87
M  V30 99 1 24 88 CFG=1
M  V30 100 1 25 89
M  V30 101 1 25 90
M  V30 102 1 26 91 CFG=3
M  V30 103 1 27 92 CFG=1
M  V30 104 1 28 93
M  V30 105 1 30 94
M  V30 106 1 31 95
M  V30 107 1 34 96
M  V30 108 1 35 97
M  V30 109 1 36 98
M  V30 110 1 37 99
M  V30 111 1 39 100 CFG=1
M  V30 112 1 40 101
M  V30 113 1 41 102
M  V30 114 1 41 103
M  V30 115 1 42 104
M  V30 116 1 42 105
M  V30 117 1 43 106
M  V30 118 1 45 107
M  V30 119 1 46 108
M  V30 120 1 47 109
M  V30 121 1 48 110
M  V30 122 1 52 111
M  V30 123 1 52 112
M  V30 124 1 53 113
M  V30 125 1 53 114
M  V30 126 1 54 115 CFG=1
M  V30 127 1 55 116
M  V30 128 1 55 117
M  V30 129 1 56 118 CFG=1
M  V30 130 1 57 119 CFG=3
M  V30 131 1 58 120
M  V30 132 1 60 121
M  V30 133 1 61 122
M  V30 134 1 64 123
M  V30 135 1 65 124
M  V30 136 1 66 125
M  V30 137 1 67 126
M  V30 END BOND
M  V30 END CTAB
M  END
>  <catalyst_id>  (1) 
FLNSVGAWHWKUNH_ZGCBUSDGSA_R

>  <source_smiles>  (1) 
C=C[C@H]1C[N+]2(Cc3cc4ccccc4c(-c4c([O-])c(C[N+]56CC[C@@H](C[C@@H]5[C@@H](O)c5ccnc7ccccc57)[C@@H](C=C)C6)cc5ccccc45)c3[O-])CC[C@H]1C[C@@H]2[C@@H](O)c1ccnc2ccccc12

>  <axial_configuration>  (1) 
R

>  <inchikey>  (1) 
FLNSVGAWHWKUNH-ZGCBUSDGSA-N

>  <build_source>  (1) 
smiles+axial_free

>  <final_biaryl_angle_deg>  (1) 
85.00

>  <rdkit_version>  (1) 
2025.09.6

>  <random_seed>  (1) 
42

>  <generated_at>  (1) 
2026-05-19T12:32:12

$$$$
