catalyst418
     RDKit          3D

  0  0  0  0  0  0  0  0  0  0999 V3000
M  V30 BEGIN CTAB
M  V30 COUNTS 61 64 0 0 0
M  V30 BEGIN ATOM
M  V30 1 O 6.049044 2.066563 -3.103873 0
M  V30 2 N 6.343249 2.337592 -1.931109 0 CHG=1
M  V30 3 O 7.271083 3.086495 -1.593500 0 CHG=-1
M  V30 4 C 5.535047 1.730647 -0.866428 0
M  V30 5 C 4.481935 0.871189 -1.195137 0
M  V30 6 C 3.714457 0.292955 -0.176063 0
M  V30 7 C 3.978575 0.575006 1.167152 0
M  V30 8 N 3.274283 0.017897 2.253013 0
M  V30 9 C 2.079246 -0.635304 2.352391 0
M  V30 10 S 1.804460 -1.495337 3.760032 0
M  V30 11 N 1.187047 -0.476407 1.337767 0
M  V30 12 C -0.151194 -1.092973 1.184574 0 CFG=2
M  V30 13 C -0.059012 -2.548749 0.649579 0
M  V30 14 C 0.667754 -2.733326 -0.664182 0
M  V30 15 C 2.030948 -3.061970 -0.674690 0
M  V30 16 C 2.712797 -3.231461 -1.880761 0
M  V30 17 C 2.038259 -3.078793 -3.089698 0
M  V30 18 C 0.680466 -2.766076 -3.092723 0
M  V30 19 C -0.003202 -2.600169 -1.886873 0
M  V30 20 C -1.043131 -0.159255 0.335820 0
M  V30 21 P -2.843286 -0.571844 0.391937 0
M  V30 22 C -3.442504 0.404175 -1.030044 0
M  V30 23 C -3.311722 1.798503 -1.103047 0
M  V30 24 C -3.773009 2.500813 -2.219309 0
M  V30 25 C -4.368166 1.818028 -3.277290 0
M  V30 26 C -4.504362 0.433239 -3.219692 0
M  V30 27 C -4.044209 -0.269507 -2.103255 0
M  V30 28 C -3.519763 0.380840 1.797969 0
M  V30 29 C -2.739476 0.875748 2.851904 0
M  V30 30 C -3.320743 1.581584 3.911575 0
M  V30 31 C -4.694893 1.797942 3.940847 0
M  V30 32 C -5.490782 1.303459 2.913590 0
M  V30 33 C -4.908834 0.597335 1.856938 0
M  V30 34 C 5.056106 1.416527 1.480694 0
M  V30 35 C 5.829717 2.003232 0.473046 0
M  V30 36 H 4.252652 0.625067 -2.230617 0
M  V30 37 H 2.950298 -0.417207 -0.472787 0
M  V30 38 H 3.758293 0.046582 3.145748 0
M  V30 39 H 1.406965 0.251837 0.674116 0
M  V30 40 H -0.586303 -1.160349 2.187805 0
M  V30 41 H -1.061185 -2.985813 0.560443 0
M  V30 42 H 0.442922 -3.172633 1.400735 0
M  V30 43 H 2.571511 -3.185899 0.262040 0
M  V30 44 H 3.769280 -3.486762 -1.875287 0
M  V30 45 H 2.567469 -3.213623 -4.029377 0
M  V30 46 H 0.150127 -2.658164 -4.035505 0
M  V30 47 H -1.066217 -2.371374 -1.912686 0
M  V30 48 H -0.699923 -0.180771 -0.704351 0
M  V30 49 H -0.900204 0.880880 0.654219 0
M  V30 50 H -2.857047 2.357519 -0.288252 0
M  V30 51 H -3.669790 3.582100 -2.259385 0
M  V30 52 H -4.728254 2.365182 -4.144603 0
M  V30 53 H -4.970871 -0.101945 -4.042698 0
M  V30 54 H -4.164285 -1.350772 -2.080512 0
M  V30 55 H -1.665195 0.726314 2.884989 0
M  V30 56 H -2.695549 1.956681 4.718132 0
M  V30 57 H -5.144643 2.344168 4.765509 0
M  V30 58 H -6.565888 1.461315 2.931698 0
M  V30 59 H -5.560207 0.217074 1.071431 0
M  V30 60 H 5.298958 1.640651 2.517837 0
M  V30 61 H 6.650903 2.661342 0.750202 0
M  V30 END ATOM
M  V30 BEGIN BOND
M  V30 1 2 1 2
M  V30 2 1 2 3
M  V30 3 1 2 4
M  V30 4 2 4 5
M  V30 5 1 5 6
M  V30 6 2 6 7
M  V30 7 1 7 8
M  V30 8 1 8 9
M  V30 9 2 9 10
M  V30 10 1 9 11
M  V30 11 1 11 12
M  V30 12 1 12 13
M  V30 13 1 13 14
M  V30 14 2 14 15
M  V30 15 1 15 16
M  V30 16 2 16 17
M  V30 17 1 17 18
M  V30 18 2 18 19
M  V30 19 1 12 20
M  V30 20 1 20 21
M  V30 21 1 21 22
M  V30 22 2 22 23
M  V30 23 1 23 24
M  V30 24 2 24 25
M  V30 25 1 25 26
M  V30 26 2 26 27
M  V30 27 1 21 28
M  V30 28 2 28 29
M  V30 29 1 29 30
M  V30 30 2 30 31
M  V30 31 1 31 32
M  V30 32 2 32 33
M  V30 33 1 7 34
M  V30 34 2 34 35
M  V30 35 1 35 4
M  V30 36 1 19 14
M  V30 37 1 27 22
M  V30 38 1 33 28
M  V30 39 1 5 36
M  V30 40 1 6 37
M  V30 41 1 8 38
M  V30 42 1 11 39
M  V30 43 1 12 40 CFG=1
M  V30 44 1 13 41
M  V30 45 1 13 42
M  V30 46 1 15 43
M  V30 47 1 16 44
M  V30 48 1 17 45
M  V30 49 1 18 46
M  V30 50 1 19 47
M  V30 51 1 20 48
M  V30 52 1 20 49
M  V30 53 1 23 50
M  V30 54 1 24 51
M  V30 55 1 25 52
M  V30 56 1 26 53
M  V30 57 1 27 54
M  V30 58 1 29 55
M  V30 59 1 30 56
M  V30 60 1 31 57
M  V30 61 1 32 58
M  V30 62 1 33 59
M  V30 63 1 34 60
M  V30 64 1 35 61
M  V30 END BOND
M  V30 END CTAB
M  END
>  <catalyst_id>  (1) 
YPXGWXMQPGBFIQ_XMMPIXPASA_NONE

>  <source_smiles>  (1) 
O=[N+]([O-])c1ccc(NC(=S)N[C@H](Cc2ccccc2)CP(c2ccccc2)c2ccccc2)cc1

>  <axial_configuration>  (1) 
none

>  <inchikey>  (1) 
YPXGWXMQPGBFIQ-XMMPIXPASA-N

>  <build_source>  (1) 
smiles

>  <rdkit_version>  (1) 
2025.09.6

>  <random_seed>  (1) 
42

>  <generated_at>  (1) 
2026-05-19T12:33:43

$$$$
