catalyst328
     RDKit          3D

  0  0  0  0  0  0  0  0  0  0999 V3000
M  V30 BEGIN CTAB
M  V30 COUNTS 106 113 0 0 0
M  V30 BEGIN ATOM
M  V30 1 C -9.329818 2.732100 1.314397 0
M  V30 2 C -8.089755 2.267559 1.113558 0
M  V30 3 C -7.028258 2.205966 2.186754 0 CFG=1
M  V30 4 C -6.458146 0.772940 2.364215 0
M  V30 5 N -4.981279 0.731923 2.183657 0
M  V30 6 C -4.365594 1.615570 3.201883 0
M  V30 7 C -4.881897 3.058989 3.101659 0
M  V30 8 C -5.849636 3.172652 1.909831 0 CFG=1
M  V30 9 C -5.056566 2.729056 0.666139 0
M  V30 10 C -4.676205 1.235727 0.800618 0 CFG=1
M  V30 11 C -3.193975 0.948085 0.364059 0 CFG=1
M  V30 12 N -2.744978 -0.340397 0.915517 0
M  V30 13 C -1.511659 -0.905623 0.962957 0
M  V30 14 S -1.301759 -2.223801 1.960359 0
M  V30 15 N -0.555593 -0.335890 0.185003 0
M  V30 16 C 0.779659 -0.857513 -0.102067 0 CFG=2
M  V30 17 C 1.578727 0.214338 -0.801550 0
M  V30 18 C 2.235176 1.296361 -0.237006 0
M  V30 19 C 2.875985 2.197722 -1.088695 0
M  V30 20 C 2.844605 2.012287 -2.480418 0
M  V30 21 C 2.173435 0.922700 -3.041054 0
M  V30 22 C 1.551373 0.027463 -2.188964 0
M  V30 23 C 0.750083 -1.193822 -2.545328 0
M  V30 24 C 0.769005 -1.971139 -1.204462 0 CFG=1
M  V30 25 O 1.981244 -2.765960 -1.241617 0
M  V30 26 C 2.249526 -3.446745 -0.082292 0
M  V30 27 C 1.432998 -4.483931 0.355296 0
M  V30 28 C 1.758113 -5.155263 1.533762 0
M  V30 29 C 2.900804 -4.797200 2.269732 0
M  V30 30 C 3.263201 -5.524985 3.542029 0
M  V30 31 F 4.327500 -6.358294 3.377949 0
M  V30 32 F 2.254120 -6.304864 4.024159 0
M  V30 33 F 3.596456 -4.683112 4.558992 0
M  V30 34 C 3.730926 -3.762898 1.796677 0
M  V30 35 C 3.416658 -3.090327 0.617689 0
M  V30 36 N 4.167695 -2.026734 0.075997 0
M  V30 37 C 5.323871 -1.445862 0.557672 0
M  V30 38 O 5.949855 -1.837867 1.532780 0
M  V30 39 N 5.657151 -0.342178 -0.215513 0
M  V30 40 C 6.781545 0.495796 -0.087374 0
M  V30 41 C 6.826740 1.625758 -0.913041 0
M  V30 42 C 7.897055 2.532810 -0.850939 0
M  V30 43 C 7.922010 3.739440 -1.756806 0
M  V30 44 F 6.676353 4.225592 -2.022240 0
M  V30 45 F 8.625949 4.783645 -1.240182 0
M  V30 46 F 8.482041 3.466508 -2.966096 0
M  V30 47 C 8.949004 2.277636 0.039959 0
M  V30 48 C 8.932648 1.140602 0.863062 0
M  V30 49 C 10.054409 0.871549 1.838962 0
M  V30 50 F 11.196920 1.550099 1.533630 0
M  V30 51 F 9.734196 1.237802 3.109673 0
M  V30 52 F 10.409641 -0.440549 1.897737 0
M  V30 53 C 7.837927 0.260448 0.793583 0
M  V30 54 C -3.027373 1.047898 -1.152771 0
M  V30 55 C -2.383360 2.193481 -1.648758 0
M  V30 56 C -2.176541 2.311353 -3.006698 0
M  V30 57 N -2.565535 1.385119 -3.899654 0
M  V30 58 C -3.193503 0.289077 -3.449364 0
M  V30 59 C -3.585509 -0.651607 -4.388214 0
M  V30 60 C -4.231587 -1.832600 -4.021786 0
M  V30 61 C -4.499572 -2.094553 -2.685661 0
M  V30 62 O -5.127335 -3.283742 -2.445811 0
M  V30 63 C -5.312688 -3.654191 -1.084133 0
M  V30 64 C -4.123710 -1.153364 -1.727248 0
M  V30 65 C -3.459868 0.053301 -2.079216 0
M  V30 66 H -10.054255 2.748605 0.505243 0
M  V30 67 H -9.653942 3.106387 2.280700 0
M  V30 68 H -7.828666 1.903334 0.121540 0
M  V30 69 H -7.483121 2.500795 3.143407 0
M  V30 70 H -6.927294 0.058581 1.675095 0
M  V30 71 H -6.704462 0.402890 3.368388 0
M  V30 72 H -4.571677 1.217313 4.203410 0
M  V30 73 H -3.273520 1.600797 3.108514 0
M  V30 74 H -5.390927 3.342442 4.030557 0
M  V30 75 H -4.039128 3.748500 2.972153 0
M  V30 76 H -6.197605 4.205698 1.798751 0
M  V30 77 H -4.166340 3.362008 0.569231 0
M  V30 78 H -5.649239 2.881037 -0.243234 0
M  V30 79 H -5.325242 0.667386 0.120857 0
M  V30 80 H -2.535421 1.686073 0.841636 0
M  V30 81 H -3.377721 -0.697663 1.630416 0
M  V30 82 H -0.865340 0.366338 -0.466053 0
M  V30 83 H 1.269429 -1.164460 0.824994 0
M  V30 84 H 2.244508 1.445490 0.839217 0
M  V30 85 H 3.392940 3.059980 -0.672038 0
M  V30 86 H 3.336232 2.734086 -3.129977 0
M  V30 87 H 2.136039 0.790285 -4.118537 0
M  V30 88 H 1.218964 -1.755773 -3.358581 0
M  V30 89 H -0.266828 -0.896455 -2.818988 0
M  V30 90 H -0.095765 -2.641667 -1.145714 0
M  V30 91 H 0.552252 -4.776483 -0.208286 0
M  V30 92 H 1.112343 -5.961059 1.881167 0
M  V30 93 H 4.616462 -3.504013 2.372252 0
M  V30 94 H 3.814012 -1.691615 -0.811103 0
M  V30 95 H 4.950514 -0.043212 -0.873554 0
M  V30 96 H 6.018062 1.817579 -1.617147 0
M  V30 97 H 9.791233 2.969848 0.093401 0
M  V30 98 H 7.843534 -0.613331 1.441955 0
M  V30 99 H -2.031545 2.981958 -0.989808 0
M  V30 100 H -1.673607 3.178142 -3.426567 0
M  V30 101 H -3.380657 -0.463676 -5.439897 0
M  V30 102 H -4.521738 -2.549014 -4.786249 0
M  V30 103 H -4.355152 -3.717877 -0.556330 0
M  V30 104 H -5.768649 -4.648697 -1.067968 0
M  V30 105 H -5.998249 -2.965115 -0.580097 0
M  V30 106 H -4.343335 -1.349782 -0.684731 0
M  V30 END ATOM
M  V30 BEGIN BOND
M  V30 1 2 1 2
M  V30 2 1 2 3
M  V30 3 1 3 4
M  V30 4 1 4 5
M  V30 5 1 5 6
M  V30 6 1 6 7
M  V30 7 1 7 8
M  V30 8 1 8 9
M  V30 9 1 9 10
M  V30 10 1 10 11
M  V30 11 1 11 12
M  V30 12 1 12 13
M  V30 13 2 13 14
M  V30 14 1 13 15
M  V30 15 1 15 16
M  V30 16 1 16 17
M  V30 17 2 17 18
M  V30 18 1 18 19
M  V30 19 2 19 20
M  V30 20 1 20 21
M  V30 21 2 21 22
M  V30 22 1 22 23
M  V30 23 1 23 24
M  V30 24 1 24 25
M  V30 25 1 25 26
M  V30 26 2 26 27
M  V30 27 1 27 28
M  V30 28 2 28 29
M  V30 29 1 29 30
M  V30 30 1 30 31
M  V30 31 1 30 32
M  V30 32 1 30 33
M  V30 33 1 29 34
M  V30 34 2 34 35
M  V30 35 1 35 36
M  V30 36 1 36 37
M  V30 37 2 37 38
M  V30 38 1 37 39
M  V30 39 1 39 40
M  V30 40 2 40 41
M  V30 41 1 41 42
M  V30 42 1 42 43
M  V30 43 1 43 44
M  V30 44 1 43 45
M  V30 45 1 43 46
M  V30 46 2 42 47
M  V30 47 1 47 48
M  V30 48 1 48 49
M  V30 49 1 49 50
M  V30 50 1 49 51
M  V30 51 1 49 52
M  V30 52 2 48 53
M  V30 53 1 11 54
M  V30 54 2 54 55
M  V30 55 1 55 56
M  V30 56 2 56 57
M  V30 57 1 57 58
M  V30 58 2 58 59
M  V30 59 1 59 60
M  V30 60 2 60 61
M  V30 61 1 61 62
M  V30 62 1 62 63
M  V30 63 1 61 64
M  V30 64 2 64 65
M  V30 65 1 8 3
M  V30 66 1 24 16
M  V30 67 1 35 26
M  V30 68 1 53 40
M  V30 69 1 65 54
M  V30 70 1 10 5
M  V30 71 1 22 17
M  V30 72 1 65 58
M  V30 73 1 1 66
M  V30 74 1 1 67
M  V30 75 1 2 68
M  V30 76 1 3 69 CFG=1
M  V30 77 1 4 70
M  V30 78 1 4 71
M  V30 79 1 6 72
M  V30 80 1 6 73
M  V30 81 1 7 74
M  V30 82 1 7 75
M  V30 83 1 8 76 CFG=3
M  V30 84 1 9 77
M  V30 85 1 9 78
M  V30 86 1 10 79 CFG=3
M  V30 87 1 11 80 CFG=1
M  V30 88 1 12 81
M  V30 89 1 15 82
M  V30 90 1 16 83 CFG=1
M  V30 91 1 18 84
M  V30 92 1 19 85
M  V30 93 1 20 86
M  V30 94 1 21 87
M  V30 95 1 23 88
M  V30 96 1 23 89
M  V30 97 1 24 90 CFG=1
M  V30 98 1 27 91
M  V30 99 1 28 92
M  V30 100 1 34 93
M  V30 101 1 36 94
M  V30 102 1 39 95
M  V30 103 1 41 96
M  V30 104 1 47 97
M  V30 105 1 53 98
M  V30 106 1 55 99
M  V30 107 1 56 100
M  V30 108 1 59 101
M  V30 109 1 60 102
M  V30 110 1 63 103
M  V30 111 1 63 104
M  V30 112 1 63 105
M  V30 113 1 64 106
M  V30 END BOND
M  V30 END CTAB
M  END
>  <catalyst_id>  (1) 
SIGLZHKINDNGRE_XKHJGVJOSA_NONE

>  <source_smiles>  (1) 
C=C[C@H]1CN2CC[C@H]1C[C@H]2[C@@H](NC(=S)N[C@@H]1c2ccccc2C[C@H]1Oc1ccc(C(F)(F)F)cc1NC(=O)Nc1cc(C(F)(F)F)cc(C(F)(F)F)c1)c1ccnc2ccc(OC)cc12

>  <axial_configuration>  (1) 
none

>  <inchikey>  (1) 
SIGLZHKINDNGRE-XKHJGVJOSA-N

>  <build_source>  (1) 
smiles

>  <rdkit_version>  (1) 
2025.09.6

>  <random_seed>  (1) 
42

>  <generated_at>  (1) 
2026-05-19T12:32:47

$$$$
