catalyst259
     RDKit          3D

  0  0  0  0  0  0  0  0  0  0999 V3000
M  V30 BEGIN CTAB
M  V30 COUNTS 75 80 0 0 0
M  V30 BEGIN ATOM
M  V30 1 C -1.222647 -2.580807 -2.506791 0
M  V30 2 N -0.546821 -1.393330 -1.870770 0 CHG=1
M  V30 3 C 0.942663 -1.446801 -2.218175 0
M  V30 4 C -1.099340 -0.105662 -2.463700 0
M  V30 5 C -0.688231 -1.445401 -0.316749 0
M  V30 6 C -1.417825 -0.336174 0.425926 0
M  V30 7 C -2.828260 -0.345068 0.569338 0
M  V30 8 C -3.698488 -1.405296 0.035643 0
M  V30 9 C -3.920725 -2.574590 0.779013 0
M  V30 10 C -4.803213 -3.559555 0.325039 0
M  V30 11 C -5.522609 -3.377607 -0.864002 0
M  V30 12 C -6.461540 -4.446844 -1.370148 0
M  V30 13 F -7.541480 -3.941611 -2.026721 0
M  V30 14 F -5.845475 -5.284255 -2.250110 0
M  V30 15 F -6.958479 -5.239723 -0.381865 0
M  V30 16 C -5.340047 -2.190446 -1.586892 0
M  V30 17 C -4.452260 -1.210546 -1.131351 0
M  V30 18 C -3.455581 0.719865 1.242216 0
M  V30 19 C -2.737265 1.783936 1.796606 0
M  V30 20 C -3.415949 2.830912 2.446454 0
M  V30 21 C -2.719043 3.891763 3.021008 0
M  V30 22 C -1.334320 3.918161 2.950985 0
M  V30 23 C -0.652621 2.881415 2.310257 0
M  V30 24 C -1.329088 1.787715 1.717922 0
M  V30 25 C -0.662047 0.697923 1.068530 0
M  V30 26 C 0.836238 0.578186 1.189594 0
M  V30 27 C 1.686273 1.148941 0.174911 0
M  V30 28 O 1.207403 1.766943 -0.841857 0 CHG=-1
M  V30 29 C 3.094594 0.965043 0.364068 0
M  V30 30 C 4.106357 1.490544 -0.594524 0
M  V30 31 C 4.207844 2.864195 -0.862478 0
M  V30 32 C 5.171252 3.363581 -1.744155 0
M  V30 33 C 6.072019 2.497039 -2.376495 0
M  V30 34 C 7.094876 3.023126 -3.348590 0
M  V30 35 F 7.418326 4.331864 -3.147896 0
M  V30 36 F 8.276034 2.341843 -3.295582 0
M  V30 37 F 6.679276 2.935844 -4.643476 0
M  V30 38 C 5.977265 1.121534 -2.119896 0
M  V30 39 C 5.009091 0.627886 -1.239109 0
M  V30 40 C 3.589170 0.266547 1.487468 0
M  V30 41 C 2.754522 -0.277814 2.461820 0
M  V30 42 C 3.307034 -0.964153 3.559119 0
M  V30 43 C 2.495000 -1.510052 4.549664 0
M  V30 44 C 1.119431 -1.370428 4.455846 0
M  V30 45 C 0.565209 -0.689652 3.368482 0
M  V30 46 C 1.362639 -0.126808 2.335903 0
M  V30 47 H -2.286981 -2.554427 -2.274166 0
M  V30 48 H -1.078215 -2.529898 -3.590600 0
M  V30 49 H -0.771561 -3.496166 -2.111177 0
M  V30 50 H 1.358442 -2.371809 -1.805887 0
M  V30 51 H 1.043846 -1.452581 -3.308302 0
M  V30 52 H 1.454879 -0.587019 -1.806100 0
M  V30 53 H -0.701692 0.758738 -1.947934 0
M  V30 54 H -2.185967 -0.121739 -2.383461 0
M  V30 55 H -0.825649 -0.068119 -3.523265 0
M  V30 56 H -1.179612 -2.399141 -0.087272 0
M  V30 57 H 0.317521 -1.601142 0.085564 0
M  V30 58 H -3.402038 -2.724611 1.725609 0
M  V30 59 H -4.941632 -4.463681 0.917579 0
M  V30 60 H -5.907978 -2.012326 -2.499826 0
M  V30 61 H -4.371043 -0.275525 -1.683748 0
M  V30 62 H -4.542301 0.715746 1.333204 0
M  V30 63 H -4.501772 2.829118 2.509497 0
M  V30 64 H -3.255440 4.696942 3.514518 0
M  V30 65 H -0.774778 4.744161 3.380963 0
M  V30 66 H 0.433850 2.945009 2.248392 0
M  V30 67 H 3.503127 3.547976 -0.390030 0
M  V30 68 H 5.202277 4.434350 -1.935813 0
M  V30 69 H 6.657087 0.425596 -2.607371 0
M  V30 70 H 4.950666 -0.442482 -1.058898 0
M  V30 71 H 4.668251 0.171049 1.599983 0
M  V30 72 H 4.386163 -1.068891 3.651223 0
M  V30 73 H 2.938614 -2.028131 5.394957 0
M  V30 74 H 0.473511 -1.774059 5.230419 0
M  V30 75 H -0.516819 -0.581179 3.346022 0
M  V30 END ATOM
M  V30 BEGIN BOND
M  V30 1 1 1 2
M  V30 2 1 2 3
M  V30 3 1 2 4
M  V30 4 1 2 5
M  V30 5 1 5 6
M  V30 6 2 6 7
M  V30 7 1 7 8
M  V30 8 2 8 9
M  V30 9 1 9 10
M  V30 10 2 10 11
M  V30 11 1 11 12
M  V30 12 1 12 13
M  V30 13 1 12 14
M  V30 14 1 12 15
M  V30 15 1 11 16
M  V30 16 2 16 17
M  V30 17 1 7 18
M  V30 18 2 18 19
M  V30 19 1 19 20
M  V30 20 2 20 21
M  V30 21 1 21 22
M  V30 22 2 22 23
M  V30 23 1 23 24
M  V30 24 2 24 25
M  V30 25 1 25 26
M  V30 26 2 26 27
M  V30 27 1 27 28
M  V30 28 1 27 29
M  V30 29 1 29 30
M  V30 30 2 30 31
M  V30 31 1 31 32
M  V30 32 2 32 33
M  V30 33 1 33 34
M  V30 34 1 34 35
M  V30 35 1 34 36
M  V30 36 1 34 37
M  V30 37 1 33 38
M  V30 38 2 38 39
M  V30 39 2 29 40
M  V30 40 1 40 41
M  V30 41 2 41 42
M  V30 42 1 42 43
M  V30 43 2 43 44
M  V30 44 1 44 45
M  V30 45 2 45 46
M  V30 46 1 25 6
M  V30 47 1 46 26
M  V30 48 1 17 8
M  V30 49 1 24 19
M  V30 50 1 39 30
M  V30 51 1 46 41
M  V30 52 1 1 47
M  V30 53 1 1 48
M  V30 54 1 1 49
M  V30 55 1 3 50
M  V30 56 1 3 51
M  V30 57 1 3 52
M  V30 58 1 4 53
M  V30 59 1 4 54
M  V30 60 1 4 55
M  V30 61 1 5 56
M  V30 62 1 5 57
M  V30 63 1 9 58
M  V30 64 1 10 59
M  V30 65 1 16 60
M  V30 66 1 17 61
M  V30 67 1 18 62
M  V30 68 1 20 63
M  V30 69 1 21 64
M  V30 70 1 22 65
M  V30 71 1 23 66
M  V30 72 1 31 67
M  V30 73 1 32 68
M  V30 74 1 38 69
M  V30 75 1 39 70
M  V30 76 1 40 71
M  V30 77 1 42 72
M  V30 78 1 43 73
M  V30 79 1 44 74
M  V30 80 1 45 75
M  V30 END BOND
M  V30 END CTAB
M  END
>  <catalyst_id>  (1) 
PKQORSGIYGPSMR_UHFFFAOYSA_R

>  <source_smiles>  (1) 
C[N+](C)(C)Cc1c(-c2ccc(C(F)(F)F)cc2)cc2ccccc2c1-c1c([O-])c(-c2ccc(C(F)(F)F)cc2)cc2ccccc12

>  <axial_configuration>  (1) 
R

>  <inchikey>  (1) 
PKQORSGIYGPSMR-UHFFFAOYSA-N

>  <build_source>  (1) 
smiles+axial_free

>  <final_biaryl_angle_deg>  (1) 
85.00

>  <rdkit_version>  (1) 
2025.09.6

>  <random_seed>  (1) 
42

>  <generated_at>  (1) 
2026-05-19T12:34:13

$$$$
