catalyst34
     RDKit          3D

  0  0  0  0  0  0  0  0  0  0999 V3000
M  V30 BEGIN CTAB
M  V30 COUNTS 97 103 0 0 0
M  V30 BEGIN ATOM
M  V30 1 C -6.803317 -4.937567 -0.674815 0
M  V30 2 C -6.009269 -3.861233 -0.604466 0
M  V30 3 C -4.624731 -3.872360 0.000075 0 CFG=1
M  V30 4 C -3.545743 -3.382158 -1.002033 0
M  V30 5 N -2.756608 -2.239223 -0.466525 0
M  V30 6 C -2.093981 -2.680939 0.784979 0
M  V30 7 C -3.102767 -3.171935 1.834048 0
M  V30 8 C -4.531110 -3.010863 1.283453 0 CFG=1
M  V30 9 C -4.700471 -1.516007 0.955284 0
M  V30 10 C -3.722334 -1.118063 -0.173512 0 CFG=1
M  V30 11 C -2.988960 0.244024 0.104111 0 CFG=1
M  V30 12 N -1.863134 0.375481 -0.828628 0
M  V30 13 C -0.806475 1.191193 -0.514097 0
M  V30 14 O -0.749031 1.899081 0.479502 0
M  V30 15 N 0.172309 1.104348 -1.467348 0
M  V30 16 C 1.352733 1.936663 -1.421063 0 CFG=1
M  V30 17 N 2.433529 1.115355 -1.901503 0
M  V30 18 C 3.676810 1.118705 -1.358655 0
M  V30 19 O 4.056392 1.814961 -0.431540 0
M  V30 20 O 4.440576 0.213426 -2.017658 0
M  V30 21 C 5.799768 0.100356 -1.549287 0
M  V30 22 C 5.889536 -0.747982 -0.273388 0
M  V30 23 C 7.262760 -0.656852 0.381797 0
M  V30 24 C 7.895587 0.465857 0.894151 0
M  V30 25 C 9.161877 0.306443 1.459420 0
M  V30 26 C 9.770825 -0.958352 1.511919 0
M  V30 27 C 9.121579 -2.088515 1.004609 0
M  V30 28 C 7.864849 -1.931978 0.443411 0
M  V30 29 C 6.963165 -2.904950 -0.135131 0
M  V30 30 C 7.098036 -4.274228 -0.295882 0
M  V30 31 C 6.046923 -4.983078 -0.886024 0
M  V30 32 C 4.878916 -4.323933 -1.303458 0
M  V30 33 C 4.741393 -2.944067 -1.141870 0
M  V30 34 C 5.790427 -2.245179 -0.563705 0
M  V30 35 C 1.198903 3.267991 -2.243568 0
M  V30 36 C 2.479209 4.122905 -2.126298 0
M  V30 37 C 0.030905 4.118496 -1.701602 0
M  V30 38 C 0.940535 2.990728 -3.738945 0
M  V30 39 C -3.943043 1.430360 -0.025897 0
M  V30 40 C -4.380959 1.794031 -1.309925 0
M  V30 41 C -5.270791 2.838085 -1.446625 0
M  V30 42 N -5.762147 3.538395 -0.409509 0
M  V30 43 C -5.344511 3.216744 0.824071 0
M  V30 44 C -5.854139 3.957350 1.880386 0
M  V30 45 C -5.492962 3.711413 3.207989 0
M  V30 46 C -4.590481 2.699339 3.494745 0
M  V30 47 O -4.146981 2.342297 4.737308 0
M  V30 48 C -4.565385 3.155626 5.826496 0
M  V30 49 C -4.065904 1.941922 2.443095 0
M  V30 50 C -4.428626 2.170933 1.090478 0
M  V30 51 H -6.495826 -5.904379 -0.288201 0
M  V30 52 H -7.790797 -4.870540 -1.122102 0
M  V30 53 H -6.376165 -2.920238 -1.010234 0
M  V30 54 H -4.373867 -4.907009 0.275123 0
M  V30 55 H -3.984324 -3.098088 -1.967498 0
M  V30 56 H -2.860719 -4.208586 -1.233860 0
M  V30 57 H -1.381011 -3.482770 0.554550 0
M  V30 58 H -1.484336 -1.870171 1.200110 0
M  V30 59 H -2.987195 -2.596862 2.760621 0
M  V30 60 H -2.908551 -4.222662 2.080259 0
M  V30 61 H -5.265604 -3.327933 2.032227 0
M  V30 62 H -5.730388 -1.302754 0.647195 0
M  V30 63 H -4.519505 -0.934462 1.865888 0
M  V30 64 H -4.308909 -0.980422 -1.093326 0
M  V30 65 H -2.541281 0.203285 1.100236 0
M  V30 66 H -1.572523 -0.526697 -1.189936 0
M  V30 67 H -0.139191 0.779773 -2.367018 0
M  V30 68 H 1.556207 2.196185 -0.374407 0
M  V30 69 H 2.280596 0.476618 -2.663216 0
M  V30 70 H 6.212079 1.106784 -1.402719 0
M  V30 71 H 6.380344 -0.348991 -2.364378 0
M  V30 72 H 5.119048 -0.489655 0.462079 0
M  V30 73 H 7.420976 1.442217 0.866026 0
M  V30 74 H 9.681398 1.169770 1.868991 0
M  V30 75 H 10.756797 -1.059871 1.959427 0
M  V30 76 H 9.597262 -3.061677 1.058854 0
M  V30 77 H 7.993013 -4.793836 0.028785 0
M  V30 78 H 6.132477 -6.058935 -1.019728 0
M  V30 79 H 4.072467 -4.897012 -1.754881 0
M  V30 80 H 3.835539 -2.438430 -1.459250 0
M  V30 81 H 3.338972 3.634840 -2.596680 0
M  V30 82 H 2.728022 4.318593 -1.077438 0
M  V30 83 H 2.354141 5.092872 -2.621833 0
M  V30 84 H -0.023079 5.086940 -2.212811 0
M  V30 85 H -0.935658 3.627040 -1.852793 0
M  V30 86 H 0.151638 4.318561 -0.631352 0
M  V30 87 H 0.855790 3.927650 -4.301992 0
M  V30 88 H 1.755280 2.413759 -4.189190 0
M  V30 89 H 0.008983 2.436086 -3.892477 0
M  V30 90 H -4.028284 1.272937 -2.194304 0
M  V30 91 H -5.626491 3.147591 -2.424881 0
M  V30 92 H -6.558751 4.757442 1.662974 0
M  V30 93 H -5.934903 4.329947 3.981098 0
M  V30 94 H -4.088074 2.771442 6.733133 0
M  V30 95 H -5.649229 3.093914 5.969135 0
M  V30 96 H -4.242038 4.193474 5.693709 0
M  V30 97 H -3.348008 1.171218 2.707719 0
M  V30 END ATOM
M  V30 BEGIN BOND
M  V30 1 2 1 2
M  V30 2 1 2 3
M  V30 3 1 3 4
M  V30 4 1 4 5
M  V30 5 1 5 6
M  V30 6 1 6 7
M  V30 7 1 7 8
M  V30 8 1 8 9
M  V30 9 1 9 10
M  V30 10 1 10 11
M  V30 11 1 11 12
M  V30 12 1 12 13
M  V30 13 2 13 14
M  V30 14 1 13 15
M  V30 15 1 15 16
M  V30 16 1 16 17
M  V30 17 1 17 18
M  V30 18 2 18 19
M  V30 19 1 18 20
M  V30 20 1 20 21
M  V30 21 1 21 22
M  V30 22 1 22 23
M  V30 23 2 23 24
M  V30 24 1 24 25
M  V30 25 2 25 26
M  V30 26 1 26 27
M  V30 27 2 27 28
M  V30 28 1 28 29
M  V30 29 2 29 30
M  V30 30 1 30 31
M  V30 31 2 31 32
M  V30 32 1 32 33
M  V30 33 2 33 34
M  V30 34 1 16 35
M  V30 35 1 35 36
M  V30 36 1 35 37
M  V30 37 1 35 38
M  V30 38 1 11 39
M  V30 39 2 39 40
M  V30 40 1 40 41
M  V30 41 2 41 42
M  V30 42 1 42 43
M  V30 43 2 43 44
M  V30 44 1 44 45
M  V30 45 2 45 46
M  V30 46 1 46 47
M  V30 47 1 47 48
M  V30 48 1 46 49
M  V30 49 2 49 50
M  V30 50 1 8 3
M  V30 51 1 34 22
M  V30 52 1 50 39
M  V30 53 1 10 5
M  V30 54 1 28 23
M  V30 55 1 34 29
M  V30 56 1 50 43
M  V30 57 1 1 51
M  V30 58 1 1 52
M  V30 59 1 2 53
M  V30 60 1 3 54 CFG=1
M  V30 61 1 4 55
M  V30 62 1 4 56
M  V30 63 1 6 57
M  V30 64 1 6 58
M  V30 65 1 7 59
M  V30 66 1 7 60
M  V30 67 1 8 61 CFG=1
M  V30 68 1 9 62
M  V30 69 1 9 63
M  V30 70 1 10 64 CFG=3
M  V30 71 1 11 65 CFG=1
M  V30 72 1 12 66
M  V30 73 1 15 67
M  V30 74 1 16 68 CFG=1
M  V30 75 1 17 69
M  V30 76 1 21 70
M  V30 77 1 21 71
M  V30 78 1 22 72
M  V30 79 1 24 73
M  V30 80 1 25 74
M  V30 81 1 26 75
M  V30 82 1 27 76
M  V30 83 1 30 77
M  V30 84 1 31 78
M  V30 85 1 32 79
M  V30 86 1 33 80
M  V30 87 1 36 81
M  V30 88 1 36 82
M  V30 89 1 36 83
M  V30 90 1 37 84
M  V30 91 1 37 85
M  V30 92 1 37 86
M  V30 93 1 38 87
M  V30 94 1 38 88
M  V30 95 1 38 89
M  V30 96 1 40 90
M  V30 97 1 41 91
M  V30 98 1 44 92
M  V30 99 1 45 93
M  V30 100 1 48 94
M  V30 101 1 48 95
M  V30 102 1 48 96
M  V30 103 1 49 97
M  V30 END BOND
M  V30 END CTAB
M  END
>  <catalyst_id>  (1) 
CULWQVAAINMAOQ_PPDNCLJASA_NONE

>  <source_smiles>  (1) 
C=C[C@H]1CN2CC[C@H]1C[C@H]2[C@@H](NC(=O)N[C@@H](NC(=O)OCC1c2ccccc2-c2ccccc21)C(C)(C)C)c1ccnc2ccc(OC)cc12

>  <axial_configuration>  (1) 
none

>  <inchikey>  (1) 
CULWQVAAINMAOQ-PPDNCLJASA-N

>  <build_source>  (1) 
smiles

>  <final_biaryl_angle_deg>  (1) 
-0.09

>  <rdkit_version>  (1) 
2025.09.6

>  <random_seed>  (1) 
42

>  <generated_at>  (1) 
2026-05-19T12:34:32

$$$$
