catalyst428
     RDKit          3D

  0  0  0  0  0  0  0  0  0  0999 V3000
M  V30 BEGIN CTAB
M  V30 COUNTS 44 43 0 0 0
M  V30 BEGIN ATOM
M  V30 1 C -0.399519 1.845310 -2.183558 0
M  V30 2 C -1.069077 1.578170 -0.828424 0
M  V30 3 C -2.575089 1.839285 -0.918976 0
M  V30 4 Si -0.616531 -0.175813 -0.082614 0 VAL=4
M  V30 5 O 0.993018 -0.542032 -0.388294 0
M  V30 6 C 2.040441 0.157154 0.284095 0
M  V30 7 C 3.399664 -0.241722 -0.317425 0 CFG=2
M  V30 8 N 3.810743 -1.611064 0.100173 0
M  V30 9 C 4.458240 0.771368 0.115928 0
M  V30 10 O 5.397780 0.561750 0.869123 0
M  V30 11 O 4.291967 1.989543 -0.435861 0
M  V30 12 C -0.993696 -0.158509 1.862460 0
M  V30 13 C -2.455850 -0.464760 2.210459 0
M  V30 14 C -0.573879 1.150497 2.544354 0
M  V30 15 C -1.731146 -1.591440 -0.899723 0
M  V30 16 C -1.660209 -1.600059 -2.430624 0
M  V30 17 C -1.347402 -2.980693 -0.366389 0
M  V30 18 H -0.598299 2.871424 -2.512537 0
M  V30 19 H -0.764782 1.171847 -2.963965 0
M  V30 20 H 0.687856 1.727170 -2.123469 0
M  V30 21 H -0.645175 2.299714 -0.119546 0
M  V30 22 H -2.768175 2.849877 -1.295713 0
M  V30 23 H -3.072402 1.133072 -1.591598 0
M  V30 24 H -3.054048 1.762894 0.061419 0
M  V30 25 H 1.886986 1.238840 0.179374 0
M  V30 26 H 2.023803 -0.084056 1.354910 0
M  V30 27 H 3.351287 -0.242615 -1.412180 0
M  V30 28 H 4.738828 -1.796515 -0.282418 0
M  V30 29 H 3.942733 -1.613001 1.112885 0
M  V30 30 H 5.050660 2.512649 -0.099833 0
M  V30 31 H -0.373577 -0.970515 2.262521 0
M  V30 32 H -3.138262 0.287243 1.803273 0
M  V30 33 H -2.594345 -0.484677 3.297339 0
M  V30 34 H -2.769353 -1.441169 1.830315 0
M  V30 35 H -0.684119 1.066983 3.631342 0
M  V30 36 H -1.193210 1.991723 2.214125 0
M  V30 37 H 0.470152 1.404813 2.341184 0
M  V30 38 H -2.762349 -1.369508 -0.601708 0
M  V30 39 H -2.252690 -2.425754 -2.840184 0
M  V30 40 H -2.065908 -0.676905 -2.853595 0
M  V30 41 H -0.630902 -1.713883 -2.788528 0
M  V30 42 H -0.324892 -3.251552 -0.653970 0
M  V30 43 H -2.021614 -3.745536 -0.767234 0
M  V30 44 H -1.407659 -3.029548 0.725474 0
M  V30 END ATOM
M  V30 BEGIN BOND
M  V30 1 1 1 2
M  V30 2 1 2 3
M  V30 3 1 2 4
M  V30 4 1 4 5
M  V30 5 1 5 6
M  V30 6 1 6 7
M  V30 7 1 7 8
M  V30 8 1 7 9
M  V30 9 2 9 10
M  V30 10 1 9 11
M  V30 11 1 4 12
M  V30 12 1 12 13
M  V30 13 1 12 14
M  V30 14 1 4 15
M  V30 15 1 15 16
M  V30 16 1 15 17
M  V30 17 1 1 18
M  V30 18 1 1 19
M  V30 19 1 1 20
M  V30 20 1 2 21
M  V30 21 1 3 22
M  V30 22 1 3 23
M  V30 23 1 3 24
M  V30 24 1 6 25
M  V30 25 1 6 26
M  V30 26 1 7 27 CFG=3
M  V30 27 1 8 28
M  V30 28 1 8 29
M  V30 29 1 11 30
M  V30 30 1 12 31
M  V30 31 1 13 32
M  V30 32 1 13 33
M  V30 33 1 13 34
M  V30 34 1 14 35
M  V30 35 1 14 36
M  V30 36 1 14 37
M  V30 37 1 15 38
M  V30 38 1 16 39
M  V30 39 1 16 40
M  V30 40 1 16 41
M  V30 41 1 17 42
M  V30 42 1 17 43
M  V30 43 1 17 44
M  V30 END BOND
M  V30 END CTAB
M  END
>  <catalyst_id>  (1) 
ZHGGKRKSCWLHKC_NSHDSACASA_NONE

>  <source_smiles>  (1) 
CC(C)[Si](OC[C@H](N)C(=O)O)(C(C)C)C(C)C

>  <axial_configuration>  (1) 
none

>  <inchikey>  (1) 
ZHGGKRKSCWLHKC-NSHDSACASA-N

>  <build_source>  (1) 
smiles

>  <rdkit_version>  (1) 
2025.09.6

>  <random_seed>  (1) 
42

>  <generated_at>  (1) 
2026-05-19T12:29:58

$$$$
