catalyst9
     RDKit          3D

  0  0  0  0  0  0  0  0  0  0999 V3000
M  V30 BEGIN CTAB
M  V30 COUNTS 45 47 0 0 0
M  V30 BEGIN ATOM
M  V30 1 N -0.743168 -2.234819 1.308440 0
M  V30 2 C -1.039923 -1.111168 0.385213 0 CFG=1
M  V30 3 C -2.421690 -0.541726 0.679196 0
M  V30 4 C -2.710499 0.119474 1.884985 0
M  V30 5 C -3.982955 0.642389 2.126216 0
M  V30 6 C -4.985885 0.509075 1.169237 0
M  V30 7 C -4.719257 -0.150568 -0.027827 0
M  V30 8 C -3.447726 -0.674357 -0.270336 0
M  V30 9 C 0.115328 -0.016660 0.397043 0 CFG=2
M  V30 10 C -0.047783 1.049875 -0.689096 0
M  V30 11 C -0.007354 2.410353 -0.334701 0
M  V30 12 C -0.161114 3.410070 -1.297426 0
M  V30 13 C -0.359810 3.067772 -2.631683 0
M  V30 14 C -0.405947 1.726876 -3.002914 0
M  V30 15 C -0.252449 0.726126 -2.040148 0
M  V30 16 N 1.469487 -0.646125 0.464398 0
M  V30 17 C 1.918886 -1.341370 -0.737846 0
M  V30 18 C 3.067343 -2.296392 -0.384208 0
M  V30 19 C 4.019433 -1.734385 0.674214 0
M  V30 20 C 3.934794 -0.216581 0.732857 0
M  V30 21 C 2.498414 0.257368 1.000179 0
M  V30 22 H -0.837521 -1.895275 2.263291 0
M  V30 23 H 0.262416 -2.408067 1.210263 0
M  V30 24 H -1.067461 -1.568142 -0.610929 0
M  V30 25 H -1.948257 0.230124 2.651680 0
M  V30 26 H -4.191976 1.151083 3.063472 0
M  V30 27 H -5.976039 0.914719 1.357764 0
M  V30 28 H -5.501524 -0.260480 -0.774036 0
M  V30 29 H -3.262240 -1.189708 -1.210000 0
M  V30 30 H -0.000863 0.497186 1.362342 0
M  V30 31 H 0.141238 2.702865 0.702597 0
M  V30 32 H -0.129352 4.455884 -1.003575 0
M  V30 33 H -0.482026 3.845043 -3.381080 0
M  V30 34 H -0.564220 1.457651 -4.044007 0
M  V30 35 H -0.295491 -0.310102 -2.364320 0
M  V30 36 H 1.121927 -1.943691 -1.186402 0
M  V30 37 H 2.252322 -0.629933 -1.503737 0
M  V30 38 H 3.627597 -2.522781 -1.299499 0
M  V30 39 H 2.664637 -3.250779 -0.022630 0
M  V30 40 H 5.045621 -2.056380 0.465361 0
M  V30 41 H 3.754679 -2.147581 1.655791 0
M  V30 42 H 4.603133 0.170165 1.510365 0
M  V30 43 H 4.284411 0.197333 -0.221744 0
M  V30 44 H 2.349406 0.334946 2.083990 0
M  V30 45 H 2.411458 1.270693 0.593549 0
M  V30 END ATOM
M  V30 BEGIN BOND
M  V30 1 1 1 2
M  V30 2 1 2 3
M  V30 3 2 3 4
M  V30 4 1 4 5
M  V30 5 2 5 6
M  V30 6 1 6 7
M  V30 7 2 7 8
M  V30 8 1 2 9
M  V30 9 1 9 10
M  V30 10 2 10 11
M  V30 11 1 11 12
M  V30 12 2 12 13
M  V30 13 1 13 14
M  V30 14 2 14 15
M  V30 15 1 9 16
M  V30 16 1 16 17
M  V30 17 1 17 18
M  V30 18 1 18 19
M  V30 19 1 19 20
M  V30 20 1 20 21
M  V30 21 1 8 3
M  V30 22 1 15 10
M  V30 23 1 21 16
M  V30 24 1 1 22
M  V30 25 1 1 23
M  V30 26 1 2 24 CFG=3
M  V30 27 1 4 25
M  V30 28 1 5 26
M  V30 29 1 6 27
M  V30 30 1 7 28
M  V30 31 1 8 29
M  V30 32 1 9 30 CFG=1
M  V30 33 1 11 31
M  V30 34 1 12 32
M  V30 35 1 13 33
M  V30 36 1 14 34
M  V30 37 1 15 35
M  V30 38 1 17 36
M  V30 39 1 17 37
M  V30 40 1 18 38
M  V30 41 1 18 39
M  V30 42 1 19 40
M  V30 43 1 19 41
M  V30 44 1 20 42
M  V30 45 1 20 43
M  V30 46 1 21 44
M  V30 47 1 21 45
M  V30 END BOND
M  V30 END CTAB
M  END
>  <catalyst_id>  (1) 
ARKAXDRQVKGTDS_OALUTQOASA_NONE

>  <source_smiles>  (1) 
N[C@@H](c1ccccc1)[C@H](c1ccccc1)N1CCCCC1

>  <axial_configuration>  (1) 
none

>  <inchikey>  (1) 
ARKAXDRQVKGTDS-OALUTQOASA-N

>  <build_source>  (1) 
smiles

>  <rdkit_version>  (1) 
2025.09.6

>  <random_seed>  (1) 
42

>  <generated_at>  (1) 
2026-05-19T12:37:17

$$$$
