catalyst117
     RDKit          3D

  0  0  0  0  0  0  0  0  0  0999 V3000
M  V30 BEGIN CTAB
M  V30 COUNTS 69 73 0 0 0
M  V30 BEGIN ATOM
M  V30 1 C -6.238473 3.308453 0.306291 0
M  V30 2 C -5.053618 2.684468 0.332334 0
M  V30 3 C -3.868875 3.157200 1.141948 0 CFG=1
M  V30 4 C -3.334429 2.055559 2.096787 0
M  V30 5 N -1.894884 1.761706 1.859050 0
M  V30 6 C -1.123215 3.004245 2.094164 0
M  V30 7 C -1.594064 4.154873 1.191944 0
M  V30 8 C -2.699174 3.643917 0.249772 0 CFG=1
M  V30 9 C -2.085528 2.471635 -0.538924 0
M  V30 10 C -1.751688 1.313663 0.431140 0 CFG=1
M  V30 11 C -0.348780 0.666648 0.142375 0 CFG=1
M  V30 12 N 0.092188 -0.130094 1.300047 0
M  V30 13 C 1.378510 -0.494319 1.604599 0
M  V30 14 S 1.755812 -0.639892 3.223728 0
M  V30 15 N 2.176663 -0.739462 0.516715 0
M  V30 16 C 3.575791 -0.852113 0.393316 0
M  V30 17 C 4.487309 -0.267073 1.272480 0
M  V30 18 C 5.873002 -0.387613 1.066341 0
M  V30 19 C 6.841051 0.235487 2.044368 0
M  V30 20 F 7.096679 -0.571264 3.109033 0
M  V30 21 F 6.395551 1.415012 2.558585 0
M  V30 22 F 8.052914 0.512242 1.485179 0
M  V30 23 C 6.338166 -1.110789 -0.042826 0
M  V30 24 C 5.439105 -1.689680 -0.949730 0
M  V30 25 C 5.932037 -2.434142 -2.167003 0
M  V30 26 F 5.185218 -3.535745 -2.452926 0
M  V30 27 F 5.904436 -1.660262 -3.286476 0
M  V30 28 F 7.215040 -2.873654 -2.045885 0
M  V30 29 C 4.060447 -1.537416 -0.728039 0
M  V30 30 C -0.337653 -0.111763 -1.170819 0
M  V30 31 C 0.356082 0.463323 -2.247888 0
M  V30 32 C 0.405219 -0.209906 -3.449782 0
M  V30 33 N -0.179073 -1.402774 -3.655793 0
M  V30 34 C -0.853744 -1.966735 -2.643003 0
M  V30 35 C -1.453268 -3.195076 -2.878762 0
M  V30 36 C -2.174373 -3.874612 -1.892811 0
M  V30 37 C -2.300633 -3.316518 -0.630373 0
M  V30 38 O -2.971562 -3.859222 0.428587 0
M  V30 39 C -3.550666 -5.143902 0.235442 0
M  V30 40 C -1.702364 -2.079318 -0.375272 0
M  V30 41 C -0.972342 -1.373194 -1.365026 0
M  V30 42 H -6.422322 4.215754 0.873492 0
M  V30 43 H -7.057700 2.919039 -0.291108 0
M  V30 44 H -4.934049 1.776047 -0.255482 0
M  V30 45 H -4.188838 4.005663 1.763838 0
M  V30 46 H -3.464542 2.379238 3.138049 0
M  V30 47 H -3.913293 1.126517 2.013446 0
M  V30 48 H -0.052879 2.822725 1.943111 0
M  V30 49 H -1.216233 3.298023 3.147372 0
M  V30 50 H -0.749282 4.542305 0.609935 0
M  V30 51 H -1.971514 4.983102 1.803455 0
M  V30 52 H -3.019523 4.441822 -0.429449 0
M  V30 53 H -1.189630 2.826923 -1.062103 0
M  V30 54 H -2.780526 2.120894 -1.310508 0
M  V30 55 H -2.505009 0.529602 0.280501 0
M  V30 56 H 0.392625 1.474701 0.073859 0
M  V30 57 H -0.439110 0.108484 2.137511 0
M  V30 58 H 1.651701 -1.120453 -0.260475 0
M  V30 59 H 4.146259 0.325002 2.117809 0
M  V30 60 H 7.412422 -1.215799 -0.205147 0
M  V30 61 H 3.362922 -1.981988 -1.438601 0
M  V30 62 H 0.859546 1.421311 -2.155646 0
M  V30 63 H 0.933200 0.202233 -4.305342 0
M  V30 64 H -1.356654 -3.642107 -3.866332 0
M  V30 65 H -2.617658 -4.830358 -2.150330 0
M  V30 66 H -4.329583 -5.112843 -0.533501 0
M  V30 67 H -2.786220 -5.890040 -0.005538 0
M  V30 68 H -4.023037 -5.442563 1.176209 0
M  V30 69 H -1.813886 -1.675128 0.628088 0
M  V30 END ATOM
M  V30 BEGIN BOND
M  V30 1 2 1 2
M  V30 2 1 2 3
M  V30 3 1 3 4
M  V30 4 1 4 5
M  V30 5 1 5 6
M  V30 6 1 6 7
M  V30 7 1 7 8
M  V30 8 1 8 9
M  V30 9 1 9 10
M  V30 10 1 10 11
M  V30 11 1 11 12
M  V30 12 1 12 13
M  V30 13 2 13 14
M  V30 14 1 13 15
M  V30 15 1 15 16
M  V30 16 2 16 17
M  V30 17 1 17 18
M  V30 18 1 18 19
M  V30 19 1 19 20
M  V30 20 1 19 21
M  V30 21 1 19 22
M  V30 22 2 18 23
M  V30 23 1 23 24
M  V30 24 1 24 25
M  V30 25 1 25 26
M  V30 26 1 25 27
M  V30 27 1 25 28
M  V30 28 2 24 29
M  V30 29 1 11 30
M  V30 30 2 30 31
M  V30 31 1 31 32
M  V30 32 2 32 33
M  V30 33 1 33 34
M  V30 34 2 34 35
M  V30 35 1 35 36
M  V30 36 2 36 37
M  V30 37 1 37 38
M  V30 38 1 38 39
M  V30 39 1 37 40
M  V30 40 2 40 41
M  V30 41 1 8 3
M  V30 42 1 29 16
M  V30 43 1 41 30
M  V30 44 1 10 5
M  V30 45 1 41 34
M  V30 46 1 1 42
M  V30 47 1 1 43
M  V30 48 1 2 44
M  V30 49 1 3 45 CFG=1
M  V30 50 1 4 46
M  V30 51 1 4 47
M  V30 52 1 6 48
M  V30 53 1 6 49
M  V30 54 1 7 50
M  V30 55 1 7 51
M  V30 56 1 8 52 CFG=3
M  V30 57 1 9 53
M  V30 58 1 9 54
M  V30 59 1 10 55 CFG=3
M  V30 60 1 11 56 CFG=3
M  V30 61 1 12 57
M  V30 62 1 15 58
M  V30 63 1 17 59
M  V30 64 1 23 60
M  V30 65 1 29 61
M  V30 66 1 31 62
M  V30 67 1 32 63
M  V30 68 1 35 64
M  V30 69 1 36 65
M  V30 70 1 39 66
M  V30 71 1 39 67
M  V30 72 1 39 68
M  V30 73 1 40 69
M  V30 END BOND
M  V30 END CTAB
M  END
>  <catalyst_id>  (1) 
IQMKPBFOEWWDIQ_FRSFCCSCSA_NONE

>  <source_smiles>  (1) 
C=C[C@H]1CN2CC[C@H]1C[C@H]2[C@@H](NC(=S)Nc1cc(C(F)(F)F)cc(C(F)(F)F)c1)c1ccnc2ccc(OC)cc12

>  <axial_configuration>  (1) 
none

>  <inchikey>  (1) 
IQMKPBFOEWWDIQ-FRSFCCSCSA-N

>  <build_source>  (1) 
smiles

>  <rdkit_version>  (1) 
2025.09.6

>  <random_seed>  (1) 
42

>  <generated_at>  (1) 
2026-05-19T12:30:13

$$$$
