catalyst198
     RDKit          3D

  0  0  0  0  0  0  0  0  0  0999 V3000
M  V30 BEGIN CTAB
M  V30 COUNTS 60 62 0 0 0
M  V30 BEGIN ATOM
M  V30 1 C 2.498266 -1.269655 0.524897 0
M  V30 2 C 2.857639 0.185950 0.725842 0
M  V30 3 N 1.732397 0.896241 0.097858 0
M  V30 4 C 1.454030 0.143812 -1.154884 0 CFG=2
M  V30 5 C -0.027676 0.325532 -1.557502 0
M  V30 6 N -0.857854 0.467830 -0.297831 0 CHG=1
M  V30 7 C -2.006483 1.443146 -0.371021 0
M  V30 8 C -3.187918 0.706965 0.238441 0
M  V30 9 C -2.556491 -0.339512 1.133529 0
M  V30 10 C -1.372829 -0.806494 0.313237 0
M  V30 11 C 1.838606 -1.306104 -0.845525 0
M  V30 12 C -0.632742 0.807300 1.687070 0
M  V30 13 C -0.729942 0.556291 0.171865 0
M  V30 14 C -1.123325 1.905261 -0.468920 0
M  V30 15 C -1.709721 -0.606081 -0.161423 0 CFG=2
M  V30 16 C -1.002774 -1.847529 0.429741 0
M  V30 17 C 0.493742 -1.564475 0.167805 0
M  V30 18 C 0.485007 -0.166880 -0.502367 0 CFG=2
M  V30 19 C 1.795972 0.586410 -0.684730 0
M  V30 20 S 3.038766 0.382455 0.564701 0
M  V30 21 O 3.441555 -1.015036 0.429317 0
M  V30 22 O 2.351639 0.709190 1.809731 0
M  V30 23 O 4.058887 1.350993 0.167639 0 CHG=-1
M  V30 24 C -0.160052 -0.467257 -1.871264 0
M  V30 25 O 0.395772 -0.501112 -2.960073 0
M  V30 26 C -1.639866 -0.732684 -1.692768 0
M  V30 27 H 1.784918 -1.594609 1.291431 0
M  V30 28 H 3.371786 -1.926205 0.579828 0
M  V30 29 H 3.795642 0.431829 0.214303 0
M  V30 30 H 2.954335 0.446945 1.783208 0
M  V30 31 H 2.056660 1.842681 -0.131567 0
M  V30 32 H 2.096133 0.513408 -1.964448 0
M  V30 33 H -0.127058 1.269950 -2.103962 0
M  V30 34 H -0.430135 -0.491246 -2.163932 0
M  V30 35 H -0.160245 0.851102 0.375462 0
M  V30 36 H -2.192836 1.724658 -1.411562 0
M  V30 37 H -1.715314 2.320341 0.214840 0
M  V30 38 H -3.772698 0.221810 -0.552542 0
M  V30 39 H -3.857293 1.378699 0.783513 0
M  V30 40 H -2.217524 0.114721 2.072206 0
M  V30 41 H -3.243494 -1.155173 1.375271 0
M  V30 42 H -1.680760 -1.474009 -0.498188 0
M  V30 43 H -0.585319 -1.260655 0.917753 0
M  V30 44 H 0.992899 -2.000398 -0.853568 0
M  V30 45 H 2.558616 -1.661560 -1.592456 0
M  V30 46 H -1.624387 1.031117 2.098007 0
M  V30 47 H -0.234639 -0.036564 2.255016 0
M  V30 48 H 0.004711 1.671276 1.902156 0
M  V30 49 H -0.435959 2.700513 -0.158623 0
M  V30 50 H -2.131302 2.198031 -0.153559 0
M  V30 51 H -1.111306 1.898920 -1.562272 0
M  V30 52 H -2.730436 -0.479485 0.208173 0
M  V30 53 H -1.195977 -1.941036 1.503803 0
M  V30 54 H -1.326583 -2.781295 -0.042103 0
M  V30 55 H 1.027934 -1.586168 1.121247 0
M  V30 56 H 0.927712 -2.333872 -0.481232 0
M  V30 57 H 1.609653 1.662926 -0.762854 0
M  V30 58 H 2.294223 0.293460 -1.617010 0
M  V30 59 H -1.908370 -1.728653 -2.052521 0
M  V30 60 H -2.228191 0.033982 -2.201920 0
M  V30 END ATOM
M  V30 BEGIN BOND
M  V30 1 1 1 2
M  V30 2 1 2 3
M  V30 3 1 3 4
M  V30 4 1 4 5
M  V30 5 1 5 6
M  V30 6 1 6 7
M  V30 7 1 7 8
M  V30 8 1 8 9
M  V30 9 1 9 10
M  V30 10 1 4 11
M  V30 11 1 12 13
M  V30 12 1 13 14
M  V30 13 1 13 15
M  V30 14 1 15 16
M  V30 15 1 16 17
M  V30 16 1 17 18
M  V30 17 1 18 19 CFG=3
M  V30 18 1 19 20
M  V30 19 2 20 21
M  V30 20 2 20 22
M  V30 21 1 20 23
M  V30 22 1 18 24
M  V30 23 2 24 25
M  V30 24 1 24 26
M  V30 25 1 11 1
M  V30 26 1 18 13
M  V30 27 1 10 6
M  V30 28 1 26 15
M  V30 29 1 1 27
M  V30 30 1 1 28
M  V30 31 1 2 29
M  V30 32 1 2 30
M  V30 33 1 3 31
M  V30 34 1 4 32 CFG=3
M  V30 35 1 5 33
M  V30 36 1 5 34
M  V30 37 1 6 35
M  V30 38 1 7 36
M  V30 39 1 7 37
M  V30 40 1 8 38
M  V30 41 1 8 39
M  V30 42 1 9 40
M  V30 43 1 9 41
M  V30 44 1 10 42
M  V30 45 1 10 43
M  V30 46 1 11 44
M  V30 47 1 11 45
M  V30 48 1 12 46
M  V30 49 1 12 47
M  V30 50 1 12 48
M  V30 51 1 14 49
M  V30 52 1 14 50
M  V30 53 1 14 51
M  V30 54 1 15 52 CFG=1
M  V30 55 1 16 53
M  V30 56 1 16 54
M  V30 57 1 17 55
M  V30 58 1 17 56
M  V30 59 1 19 57
M  V30 60 1 19 58
M  V30 61 1 26 59
M  V30 62 1 26 60
M  V30 END BOND
M  V30 END CTAB
M  END
>  <catalyst_id>  (1) 
MEFMPEWFGNZVAQ_NPULLEENSA_NONE

>  <source_smiles>  (1) 
C1CN[C@H](C[NH+]2CCCC2)C1.CC1(C)C2CCC1(CS(=O)(=O)[O-])C(=O)C2

>  <axial_configuration>  (1) 
none

>  <inchikey>  (1) 
MEFMPEWFGNZVAQ-NPULLEENSA-N

>  <build_source>  (1) 
smiles

>  <rdkit_version>  (1) 
2025.09.6

>  <random_seed>  (1) 
42

>  <generated_at>  (1) 
2026-05-19T12:29:44

$$$$
