catalyst222
     RDKit          3D

  0  0  0  0  0  0  0  0  0  0999 V3000
M  V30 BEGIN CTAB
M  V30 COUNTS 68 72 0 0 0
M  V30 BEGIN ATOM
M  V30 1 C -6.574921 -0.067782 -0.687936 0
M  V30 2 C -5.259037 -0.291225 -0.576402 0
M  V30 3 C -4.571831 -1.544132 -1.066668 0 CFG=1
M  V30 4 C -3.416057 -1.229338 -2.054868 0
M  V30 5 N -2.118043 -1.798084 -1.597667 0
M  V30 6 C -2.270271 -3.269367 -1.494866 0
M  V30 7 C -3.400188 -3.669303 -0.534453 0
M  V30 8 C -4.007912 -2.402396 0.093777 0 CFG=1
M  V30 9 C -2.850699 -1.675052 0.803461 0
M  V30 10 C -1.816175 -1.204069 -0.245619 0 CFG=1
M  V30 11 C -0.332061 -1.469667 0.205263 0 CFG=1
M  V30 12 N 0.543673 -1.345739 -0.983936 0
M  V30 13 S 2.060592 -2.047615 -0.967125 0
M  V30 14 O 2.464537 -2.205867 -2.346069 0
M  V30 15 O 2.042223 -3.164396 -0.048108 0
M  V30 16 C 3.068810 -0.755549 -0.279095 0
M  V30 17 C 3.283604 0.409802 -1.022794 0
M  V30 18 C 4.014151 1.469904 -0.467762 0
M  V30 19 C 4.241696 2.748645 -1.239041 0
M  V30 20 F 5.532895 2.876976 -1.651139 0
M  V30 21 F 3.477829 2.857599 -2.360237 0
M  V30 22 F 3.976263 3.861484 -0.498186 0
M  V30 23 C 4.539516 1.326786 0.830301 0
M  V30 24 C 4.336095 0.152446 1.577902 0
M  V30 25 C 4.906998 0.019407 2.970946 0
M  V30 26 F 4.932922 1.198348 3.651412 0
M  V30 27 F 6.193205 -0.427607 2.951995 0
M  V30 28 F 4.219661 -0.856054 3.755674 0
M  V30 29 C 3.610668 -0.899809 1.001393 0
M  V30 30 C 0.104896 -0.595905 1.373065 0
M  V30 31 C 0.322880 -1.235826 2.602971 0
M  V30 32 C 0.758575 -0.490749 3.678463 0
M  V30 33 N 0.992702 0.832195 3.619789 0
M  V30 34 C 0.789792 1.463431 2.455000 0
M  V30 35 C 1.058278 2.823552 2.410843 0
M  V30 36 C 0.908708 3.576134 1.242649 0
M  V30 37 C 0.474876 2.956722 0.081756 0
M  V30 38 O 0.299266 3.551589 -1.134844 0
M  V30 39 C 0.625125 4.933219 -1.230764 0
M  V30 40 C 0.189228 1.589206 0.111487 0
M  V30 41 C 0.340478 0.807952 1.285611 0
M  V30 42 H -7.014167 0.855285 -0.320856 0
M  V30 43 H -7.244130 -0.791990 -1.142281 0
M  V30 44 H -4.641467 0.476594 -0.113693 0
M  V30 45 H -5.308731 -2.156679 -1.605932 0
M  V30 46 H -3.301188 -0.149932 -2.218758 0
M  V30 47 H -3.657110 -1.642849 -3.043216 0
M  V30 48 H -1.326991 -3.728625 -1.177591 0
M  V30 49 H -2.467445 -3.685256 -2.491086 0
M  V30 50 H -3.008250 -4.329649 0.248386 0
M  V30 51 H -4.171870 -4.231276 -1.073974 0
M  V30 52 H -4.792549 -2.671389 0.809763 0
M  V30 53 H -3.225876 -0.813178 1.367249 0
M  V30 54 H -2.398450 -2.354503 1.535993 0
M  V30 55 H -1.934882 -0.119171 -0.355193 0
M  V30 56 H -0.297213 -2.523132 0.513262 0
M  V30 57 H 0.040364 -1.493713 -1.866852 0
M  V30 58 H 2.856522 0.500876 -2.021706 0
M  V30 59 H 5.106555 2.149454 1.270856 0
M  V30 60 H 3.443847 -1.815992 1.567141 0
M  V30 61 H 0.175283 -2.305335 2.723949 0
M  V30 62 H 0.947082 -0.952892 4.643706 0
M  V30 63 H 1.405240 3.316303 3.317242 0
M  V30 64 H 1.145845 4.633942 1.280970 0
M  V30 65 H 1.681995 5.107525 -1.004934 0
M  V30 66 H 0.449328 5.246838 -2.264212 0
M  V30 67 H -0.021765 5.535522 -0.584501 0
M  V30 68 H -0.132920 1.133353 -0.821476 0
M  V30 END ATOM
M  V30 BEGIN BOND
M  V30 1 2 1 2
M  V30 2 1 2 3
M  V30 3 1 3 4
M  V30 4 1 4 5
M  V30 5 1 5 6
M  V30 6 1 6 7
M  V30 7 1 7 8
M  V30 8 1 8 9
M  V30 9 1 9 10
M  V30 10 1 10 11
M  V30 11 1 11 12
M  V30 12 1 12 13
M  V30 13 2 13 14
M  V30 14 2 13 15
M  V30 15 1 13 16
M  V30 16 2 16 17
M  V30 17 1 17 18
M  V30 18 1 18 19
M  V30 19 1 19 20
M  V30 20 1 19 21
M  V30 21 1 19 22
M  V30 22 2 18 23
M  V30 23 1 23 24
M  V30 24 1 24 25
M  V30 25 1 25 26
M  V30 26 1 25 27
M  V30 27 1 25 28
M  V30 28 2 24 29
M  V30 29 1 11 30
M  V30 30 2 30 31
M  V30 31 1 31 32
M  V30 32 2 32 33
M  V30 33 1 33 34
M  V30 34 2 34 35
M  V30 35 1 35 36
M  V30 36 2 36 37
M  V30 37 1 37 38
M  V30 38 1 38 39
M  V30 39 1 37 40
M  V30 40 2 40 41
M  V30 41 1 8 3
M  V30 42 1 29 16
M  V30 43 1 41 30
M  V30 44 1 10 5
M  V30 45 1 41 34
M  V30 46 1 1 42
M  V30 47 1 1 43
M  V30 48 1 2 44
M  V30 49 1 3 45 CFG=3
M  V30 50 1 4 46
M  V30 51 1 4 47
M  V30 52 1 6 48
M  V30 53 1 6 49
M  V30 54 1 7 50
M  V30 55 1 7 51
M  V30 56 1 8 52 CFG=1
M  V30 57 1 9 53
M  V30 58 1 9 54
M  V30 59 1 10 55 CFG=3
M  V30 60 1 11 56 CFG=1
M  V30 61 1 12 57
M  V30 62 1 17 58
M  V30 63 1 23 59
M  V30 64 1 29 60
M  V30 65 1 31 61
M  V30 66 1 32 62
M  V30 67 1 35 63
M  V30 68 1 36 64
M  V30 69 1 39 65
M  V30 70 1 39 66
M  V30 71 1 39 67
M  V30 72 1 40 68
M  V30 END BOND
M  V30 END CTAB
M  END
>  <catalyst_id>  (1) 
NOTPKKPGQYSWQQ_FRSFCCSCSA_NONE

>  <source_smiles>  (1) 
C=C[C@H]1CN2CC[C@H]1C[C@H]2[C@@H](NS(=O)(=O)c1cc(C(F)(F)F)cc(C(F)(F)F)c1)c1ccnc2ccc(OC)cc12

>  <axial_configuration>  (1) 
none

>  <inchikey>  (1) 
NOTPKKPGQYSWQQ-FRSFCCSCSA-N

>  <build_source>  (1) 
smiles

>  <rdkit_version>  (1) 
2025.09.6

>  <random_seed>  (1) 
42

>  <generated_at>  (1) 
2026-05-19T12:32:27

$$$$
