catalyst12
     RDKit          3D

  0  0  0  0  0  0  0  0  0  0999 V3000
M  V30 BEGIN CTAB
M  V30 COUNTS 78 84 0 0 0
M  V30 BEGIN ATOM
M  V30 1 O 2.494852 -0.054634 -0.334877 0
M  V30 2 C 3.055264 -1.015898 0.171471 0
M  V30 3 N 4.276642 -1.015229 0.808975 0
M  V30 4 C 5.073613 0.103167 1.121566 0
M  V30 5 C 6.372091 -0.142595 1.583307 0
M  V30 6 C 7.236433 0.913061 1.918881 0
M  V30 7 C 8.629021 0.627014 2.426852 0
M  V30 8 F 8.663956 0.489692 3.780186 0
M  V30 9 F 9.521284 1.609137 2.123631 0
M  V30 10 F 9.153356 -0.523555 1.920107 0
M  V30 11 C 6.770916 2.231674 1.809154 0
M  V30 12 C 5.466697 2.498419 1.365067 0
M  V30 13 C 4.961946 3.916352 1.232738 0
M  V30 14 F 3.704095 4.080246 1.726157 0
M  V30 15 F 4.923612 4.337440 -0.060087 0
M  V30 16 F 5.737736 4.820655 1.895689 0
M  V30 17 C 4.629490 1.423245 1.019367 0
M  V30 18 N 2.516578 -2.288166 0.154500 0
M  V30 19 C 1.184001 -2.519164 -0.419015 0 CFG=1
M  V30 20 C 0.987116 -4.013847 -0.722934 0
M  V30 21 C 0.832650 -4.863809 0.538137 0
M  V30 22 C -0.217063 -4.303840 1.492817 0
M  V30 23 C 0.021629 -2.823107 1.783776 0
M  V30 24 C 0.021900 -1.960717 0.491387 0 CFG=2
M  V30 25 N -1.311054 -1.946679 -0.196646 0
M  V30 26 C -2.422112 -1.472994 0.667073 0
M  V30 27 C -2.484400 0.034015 0.841131 0
M  V30 28 C -2.045823 0.616450 2.033354 0
M  V30 29 C -1.988662 2.001001 2.154734 0
M  V30 30 C -2.322054 2.833016 1.078725 0
M  V30 31 C -2.196000 4.226201 1.212506 0
M  V30 32 C -2.476087 5.079996 0.147849 0
M  V30 33 C -2.877008 4.549691 -1.069272 0
M  V30 34 C -3.012444 3.166967 -1.214212 0
M  V30 35 C -2.764605 2.269509 -0.145825 0
M  V30 36 C -2.907644 0.849190 -0.243701 0
M  V30 37 C -3.417715 0.161946 -1.470832 0
M  V30 38 C -2.581813 -0.810316 -2.086284 0
M  V30 39 C -3.009629 -1.477403 -3.238783 0
M  V30 40 C -4.263185 -1.211223 -3.779940 0
M  V30 41 C -5.138337 -0.311536 -3.160741 0
M  V30 42 C -6.419040 -0.106535 -3.702034 0
M  V30 43 C -7.333835 0.743656 -3.085151 0
M  V30 44 C -6.982156 1.391959 -1.911035 0
M  V30 45 C -5.709680 1.202043 -1.366337 0
M  V30 46 C -4.740571 0.370143 -1.981750 0
M  V30 47 C -1.237156 -1.167355 -1.467387 0
M  V30 48 H 4.706990 -1.923527 0.899569 0
M  V30 49 H 6.732355 -1.166133 1.679525 0
M  V30 50 H 7.430623 3.059924 2.074250 0
M  V30 51 H 3.620307 1.649666 0.679563 0
M  V30 52 H 2.782886 -2.875319 0.930053 0
M  V30 53 H 1.204409 -1.980823 -1.371984 0
M  V30 54 H 0.093302 -4.142358 -1.345833 0
M  V30 55 H 1.833115 -4.393218 -1.309061 0
M  V30 56 H 1.796220 -4.925771 1.058247 0
M  V30 57 H 0.565476 -5.889475 0.258777 0
M  V30 58 H -1.217073 -4.447237 1.067064 0
M  V30 59 H -0.191302 -4.869740 2.431163 0
M  V30 60 H 0.987977 -2.714077 2.293040 0
M  V30 61 H -0.705702 -2.466736 2.517962 0
M  V30 62 H 0.270751 -0.933024 0.784505 0
M  V30 63 H -2.424307 -1.962233 1.644957 0
M  V30 64 H -3.374313 -1.827670 0.248171 0
M  V30 65 H -1.726055 -0.004226 2.866387 0
M  V30 66 H -1.639858 2.428389 3.092632 0
M  V30 67 H -1.861624 4.660316 2.152555 0
M  V30 68 H -2.365769 6.154277 0.266628 0
M  V30 69 H -3.080684 5.204825 -1.911992 0
M  V30 70 H -3.310278 2.791139 -2.191109 0
M  V30 71 H -2.372768 -2.218381 -3.716194 0
M  V30 72 H -4.565643 -1.744052 -4.679145 0
M  V30 73 H -6.720382 -0.622257 -4.611569 0
M  V30 74 H -8.321371 0.887038 -3.514708 0
M  V30 75 H -7.692634 2.045104 -1.411470 0
M  V30 76 H -5.482420 1.716770 -0.434922 0
M  V30 77 H -0.693430 -1.765131 -2.207701 0
M  V30 78 H -0.655603 -0.243344 -1.341739 0
M  V30 END ATOM
M  V30 BEGIN BOND
M  V30 1 2 1 2
M  V30 2 1 2 3
M  V30 3 1 3 4
M  V30 4 2 4 5
M  V30 5 1 5 6
M  V30 6 1 6 7
M  V30 7 1 7 8
M  V30 8 1 7 9
M  V30 9 1 7 10
M  V30 10 2 6 11
M  V30 11 1 11 12
M  V30 12 1 12 13
M  V30 13 1 13 14
M  V30 14 1 13 15
M  V30 15 1 13 16
M  V30 16 2 12 17
M  V30 17 1 2 18
M  V30 18 1 18 19
M  V30 19 1 19 20
M  V30 20 1 20 21
M  V30 21 1 21 22
M  V30 22 1 22 23
M  V30 23 1 23 24
M  V30 24 1 24 25
M  V30 25 1 25 26
M  V30 26 1 26 27
M  V30 27 2 27 28
M  V30 28 1 28 29
M  V30 29 2 29 30
M  V30 30 1 30 31
M  V30 31 2 31 32
M  V30 32 1 32 33
M  V30 33 2 33 34
M  V30 34 1 34 35
M  V30 35 2 35 36
M  V30 36 1 36 37
M  V30 37 2 37 38
M  V30 38 1 38 39
M  V30 39 2 39 40
M  V30 40 1 40 41
M  V30 41 2 41 42
M  V30 42 1 42 43
M  V30 43 2 43 44
M  V30 44 1 44 45
M  V30 45 2 45 46
M  V30 46 1 38 47
M  V30 47 1 17 4
M  V30 48 1 24 19
M  V30 49 1 47 25
M  V30 50 1 36 27
M  V30 51 1 46 37
M  V30 52 1 35 30
M  V30 53 1 46 41
M  V30 54 1 3 48
M  V30 55 1 5 49
M  V30 56 1 11 50
M  V30 57 1 17 51
M  V30 58 1 18 52
M  V30 59 1 19 53 CFG=3
M  V30 60 1 20 54
M  V30 61 1 20 55
M  V30 62 1 21 56
M  V30 63 1 21 57
M  V30 64 1 22 58
M  V30 65 1 22 59
M  V30 66 1 23 60
M  V30 67 1 23 61
M  V30 68 1 24 62 CFG=1
M  V30 69 1 26 63
M  V30 70 1 26 64
M  V30 71 1 28 65
M  V30 72 1 29 66
M  V30 73 1 31 67
M  V30 74 1 32 68
M  V30 75 1 33 69
M  V30 76 1 34 70
M  V30 77 1 39 71
M  V30 78 1 40 72
M  V30 79 1 42 73
M  V30 80 1 43 74
M  V30 81 1 44 75
M  V30 82 1 45 76
M  V30 83 1 47 77
M  V30 84 1 47 78
M  V30 END BOND
M  V30 END CTAB
M  END
>  <catalyst_id>  (1) 
BDXWHNAYVACKSW_ACHIHNKUSA_R

>  <source_smiles>  (1) 
O=C(Nc1cc(C(F)(F)F)cc(C(F)(F)F)c1)N[C@H]1CCCC[C@@H]1N1Cc2ccc3ccccc3c2-c2c(ccc3ccccc23)C1

>  <axial_configuration>  (1) 
R

>  <inchikey>  (1) 
BDXWHNAYVACKSW-ACHIHNKUSA-N

>  <build_source>  (1) 
smiles+axial_bridged

>  <final_biaryl_angle_deg>  (1) 
122.12

>  <n_valid_conformers>  (1) 
9

>  <rdkit_version>  (1) 
2025.09.6

>  <random_seed>  (1) 
42

>  <generated_at>  (1) 
2026-05-19T12:30:29

$$$$
