catalyst180
     RDKit          3D

  0  0  0  0  0  0  0  0  0  0999 V3000
M  V30 BEGIN CTAB
M  V30 COUNTS 48 51 0 0 0
M  V30 BEGIN ATOM
M  V30 1 C 5.747312 0.613329 -1.531665 0
M  V30 2 C 4.438655 0.394227 -1.348491 0
M  V30 3 C 3.762920 0.406510 0.002689 0 CFG=1
M  V30 4 C 2.618760 1.451345 0.069124 0
M  V30 5 N 1.408383 0.915260 0.742317 0
M  V30 6 C 1.818409 0.347489 2.049532 0
M  V30 7 C 2.738103 -0.873191 1.869012 0
M  V30 8 C 3.171447 -0.970618 0.393410 0 CFG=1
M  V30 9 C 1.901044 -1.234689 -0.439787 0
M  V30 10 C 0.811643 -0.192977 -0.071718 0 CFG=2
M  V30 11 C 0.010991 0.279833 -1.327492 0 CFG=1
M  V30 12 O -0.427733 -0.841165 -2.105176 0
M  V30 13 C -1.161690 1.197731 -1.004004 0
M  V30 14 C -1.002709 2.563538 -1.277723 0
M  V30 15 C -2.038523 3.428772 -0.992950 0
M  V30 16 N -3.212784 3.039530 -0.464076 0
M  V30 17 C -3.377816 1.738627 -0.182396 0
M  V30 18 C -4.588206 1.353686 0.375424 0
M  V30 19 C -4.868605 0.024859 0.707542 0
M  V30 20 C -3.914989 -0.954604 0.476744 0
M  V30 21 O -4.045510 -2.287753 0.746968 0
M  V30 22 C -5.270861 -2.708529 1.333783 0
M  V30 23 C -2.690049 -0.585550 -0.086297 0
M  V30 24 C -2.388304 0.757840 -0.427704 0
M  V30 25 H 6.179537 0.592004 -2.527751 0
M  V30 26 H 6.417331 0.813753 -0.701237 0
M  V30 27 H 3.820333 0.198012 -2.222315 0
M  V30 28 H 4.511065 0.675944 0.762422 0
M  V30 29 H 2.970339 2.330740 0.625196 0
M  V30 30 H 2.357094 1.836667 -0.923179 0
M  V30 31 H 0.931429 0.064521 2.629769 0
M  V30 32 H 2.324386 1.117863 2.645276 0
M  V30 33 H 3.615494 -0.776884 2.519168 0
M  V30 34 H 2.212709 -1.789083 2.165554 0
M  V30 35 H 3.900238 -1.777140 0.257072 0
M  V30 36 H 1.523728 -2.242318 -0.224148 0
M  V30 37 H 2.138819 -1.210170 -1.508522 0
M  V30 38 H 0.090604 -0.713773 0.572852 0
M  V30 39 H 0.695934 0.813467 -1.996946 0
M  V30 40 H -1.207726 -0.553175 -2.611164 0
M  V30 41 H -0.079933 2.954865 -1.693984 0
M  V30 42 H -1.948215 4.493654 -1.186836 0
M  V30 43 H -5.341759 2.116511 0.560580 0
M  V30 44 H -5.836707 -0.199610 1.141367 0
M  V30 45 H -6.115736 -2.514164 0.664853 0
M  V30 46 H -5.212345 -3.789906 1.490649 0
M  V30 47 H -5.422950 -2.237873 2.310753 0
M  V30 48 H -1.963558 -1.376630 -0.256496 0
M  V30 END ATOM
M  V30 BEGIN BOND
M  V30 1 2 1 2
M  V30 2 1 2 3
M  V30 3 1 3 4
M  V30 4 1 4 5
M  V30 5 1 5 6
M  V30 6 1 6 7
M  V30 7 1 7 8
M  V30 8 1 8 9
M  V30 9 1 9 10
M  V30 10 1 10 11
M  V30 11 1 11 12
M  V30 12 1 11 13
M  V30 13 2 13 14
M  V30 14 1 14 15
M  V30 15 2 15 16
M  V30 16 1 16 17
M  V30 17 2 17 18
M  V30 18 1 18 19
M  V30 19 2 19 20
M  V30 20 1 20 21
M  V30 21 1 21 22
M  V30 22 1 20 23
M  V30 23 2 23 24
M  V30 24 1 8 3
M  V30 25 1 24 13
M  V30 26 1 10 5
M  V30 27 1 24 17
M  V30 28 1 1 25
M  V30 29 1 1 26
M  V30 30 1 2 27
M  V30 31 1 3 28 CFG=1
M  V30 32 1 4 29
M  V30 33 1 4 30
M  V30 34 1 6 31
M  V30 35 1 6 32
M  V30 36 1 7 33
M  V30 37 1 7 34
M  V30 38 1 8 35 CFG=1
M  V30 39 1 9 36
M  V30 40 1 9 37
M  V30 41 1 10 38 CFG=1
M  V30 42 1 11 39 CFG=3
M  V30 43 1 12 40
M  V30 44 1 14 41
M  V30 45 1 15 42
M  V30 46 1 18 43
M  V30 47 1 19 44
M  V30 48 1 22 45
M  V30 49 1 22 46
M  V30 50 1 22 47
M  V30 51 1 23 48
M  V30 END BOND
M  V30 END CTAB
M  END
>  <catalyst_id>  (1) 
LOUPRKONTZGTKE_LHHVKLHASA_NONE

>  <source_smiles>  (1) 
C=C[C@H]1CN2CC[C@H]1C[C@@H]2[C@@H](O)c1ccnc2ccc(OC)cc12

>  <axial_configuration>  (1) 
none

>  <inchikey>  (1) 
LOUPRKONTZGTKE-LHHVKLHASA-N

>  <build_source>  (1) 
smiles

>  <rdkit_version>  (1) 
2025.09.6

>  <random_seed>  (1) 
42

>  <generated_at>  (1) 
2026-05-19T12:30:13

$$$$
