catalyst19
     RDKit          3D

  0  0  0  0  0  0  0  0  0  0999 V3000
M  V30 BEGIN CTAB
M  V30 COUNTS 52 54 0 0 0
M  V30 BEGIN ATOM
M  V30 1 F 7.489818 -0.772281 -0.304574 0
M  V30 2 C 6.340842 -1.369647 -0.729477 0
M  V30 3 F 6.032170 -2.293755 0.221292 0
M  V30 4 F 6.675984 -2.070331 -1.846223 0
M  V30 5 C 5.225313 -0.382614 -0.982299 0
M  V30 6 C 3.884766 -0.804220 -0.925418 0
M  V30 7 C 2.838191 0.081677 -1.184246 0
M  V30 8 N 1.471616 -0.265366 -1.119095 0
M  V30 9 C 0.843435 -1.478619 -1.234734 0
M  V30 10 S 1.432268 -2.901077 -1.881377 0
M  V30 11 N -0.454591 -1.510554 -0.796556 0
M  V30 12 C -1.142759 -0.577831 0.118080 0 CFG=2
M  V30 13 C -0.606801 -0.714422 1.554025 0
M  V30 14 C -1.024779 -2.027763 2.212339 0
M  V30 15 C -2.533302 -2.242215 2.151283 0
M  V30 16 C -3.059364 -2.122279 0.722199 0
M  V30 17 C -2.700426 -0.764493 0.064771 0 CFG=1
M  V30 18 N -3.422903 0.361608 0.712128 0
M  V30 19 C -4.884536 0.215401 0.688707 0
M  V30 20 C -5.392205 1.603536 1.043476 0
M  V30 21 C -4.291675 2.552943 0.599070 0
M  V30 22 C -3.183925 1.658086 0.064075 0
M  V30 23 C 3.141562 1.420623 -1.462360 0
M  V30 24 C 4.471017 1.870720 -1.526841 0
M  V30 25 C 4.773790 3.308442 -1.873677 0
M  V30 26 F 3.803510 4.169916 -1.458519 0
M  V30 27 F 4.897236 3.500800 -3.214709 0
M  V30 28 F 5.932873 3.758290 -1.319193 0
M  V30 29 C 5.507526 0.954118 -1.301481 0
M  V30 30 H 3.687665 -1.833903 -0.638656 0
M  V30 31 H 0.835184 0.516771 -1.176324 0
M  V30 32 H -0.834873 -2.449606 -0.850900 0
M  V30 33 H -0.893484 0.423837 -0.239903 0
M  V30 34 H -0.980852 0.120214 2.160082 0
M  V30 35 H 0.486769 -0.640330 1.567293 0
M  V30 36 H -0.517535 -2.864970 1.717541 0
M  V30 37 H -0.695476 -2.034926 3.257662 0
M  V30 38 H -2.775781 -3.234841 2.547781 0
M  V30 39 H -3.035645 -1.513504 2.798424 0
M  V30 40 H -2.641808 -2.940409 0.122448 0
M  V30 41 H -4.140589 -2.297174 0.712747 0
M  V30 42 H -3.004927 -0.817889 -0.990056 0
M  V30 43 H -5.248214 -0.515587 1.416988 0
M  V30 44 H -5.243460 -0.068586 -0.308713 0
M  V30 45 H -5.545331 1.694854 2.125386 0
M  V30 46 H -6.344620 1.823298 0.550755 0
M  V30 47 H -3.940436 3.142038 1.454219 0
M  V30 48 H -4.644343 3.251305 -0.166790 0
M  V30 49 H -2.205596 2.079195 0.314041 0
M  V30 50 H -3.265496 1.582027 -1.027662 0
M  V30 51 H 2.338805 2.132788 -1.651131 0
M  V30 52 H 6.545392 1.286704 -1.362056 0
M  V30 END ATOM
M  V30 BEGIN BOND
M  V30 1 1 1 2
M  V30 2 1 2 3
M  V30 3 1 2 4
M  V30 4 1 2 5
M  V30 5 2 5 6
M  V30 6 1 6 7
M  V30 7 1 7 8
M  V30 8 1 8 9
M  V30 9 2 9 10
M  V30 10 1 9 11
M  V30 11 1 11 12
M  V30 12 1 12 13
M  V30 13 1 13 14
M  V30 14 1 14 15
M  V30 15 1 15 16
M  V30 16 1 16 17
M  V30 17 1 17 18
M  V30 18 1 18 19
M  V30 19 1 19 20
M  V30 20 1 20 21
M  V30 21 1 21 22
M  V30 22 2 7 23
M  V30 23 1 23 24
M  V30 24 1 24 25
M  V30 25 1 25 26
M  V30 26 1 25 27
M  V30 27 1 25 28
M  V30 28 2 24 29
M  V30 29 1 29 5
M  V30 30 1 17 12
M  V30 31 1 22 18
M  V30 32 1 6 30
M  V30 33 1 8 31
M  V30 34 1 11 32
M  V30 35 1 12 33 CFG=3
M  V30 36 1 13 34
M  V30 37 1 13 35
M  V30 38 1 14 36
M  V30 39 1 14 37
M  V30 40 1 15 38
M  V30 41 1 15 39
M  V30 42 1 16 40
M  V30 43 1 16 41
M  V30 44 1 17 42 CFG=3
M  V30 45 1 19 43
M  V30 46 1 19 44
M  V30 47 1 20 45
M  V30 48 1 20 46
M  V30 49 1 21 47
M  V30 50 1 21 48
M  V30 51 1 22 49
M  V30 52 1 22 50
M  V30 53 1 23 51
M  V30 54 1 29 52
M  V30 END BOND
M  V30 END CTAB
M  END
>  <catalyst_id>  (1) 
BSICYYMKFDEOFB_HZPDHXFCSA_NONE

>  <source_smiles>  (1) 
FC(F)(F)c1cc(NC(=S)N[C@@H]2CCCC[C@H]2N2CCCC2)cc(C(F)(F)F)c1

>  <axial_configuration>  (1) 
none

>  <inchikey>  (1) 
BSICYYMKFDEOFB-HZPDHXFCSA-N

>  <build_source>  (1) 
smiles

>  <rdkit_version>  (1) 
2025.09.6

>  <random_seed>  (1) 
42

>  <generated_at>  (1) 
2026-05-19T12:30:15

$$$$
