catalyst104
     RDKit          3D

  0  0  0  0  0  0  0  0  0  0999 V3000
M  V30 BEGIN CTAB
M  V30 COUNTS 78 83 0 0 0
M  V30 BEGIN ATOM
M  V30 1 C -6.392719 -0.504497 -2.265375 0
M  V30 2 C -5.638250 -0.651167 -0.950065 0
M  V30 3 C -4.997760 -2.040564 -0.787356 0 CFG=1
M  V30 4 C -3.822898 -2.279740 -1.768173 0
M  V30 5 N -2.566518 -2.618813 -1.053582 0
M  V30 6 C -2.786719 -3.862858 -0.282136 0
M  V30 7 C -3.950893 -3.725684 0.708983 0
M  V30 8 C -4.494006 -2.287130 0.656749 0 CFG=1
M  V30 9 C -3.310168 -1.361403 0.984836 0
M  V30 10 C -2.243145 -1.474478 -0.128654 0 CFG=1
M  V30 11 C -0.769684 -1.541394 0.435767 0 CFG=1
M  V30 12 N 0.116089 -2.023930 -0.632841 0
M  V30 13 C 1.396600 -2.319230 -0.540755 0
M  V30 14 C 2.481223 -2.129145 0.281775 0
M  V30 15 N 2.745398 -1.536793 1.431561 0
M  V30 16 C 4.078526 -1.080299 1.812339 0
M  V30 17 C 4.180878 0.403963 1.543792 0
M  V30 18 C 4.500950 0.876002 0.261899 0
M  V30 19 C 4.521611 2.250725 -0.018187 0
M  V30 20 C 4.853561 2.753794 -1.402462 0
M  V30 21 F 4.655337 1.827863 -2.380738 0
M  V30 22 F 4.108289 3.837781 -1.762924 0
M  V30 23 F 6.153072 3.144142 -1.511481 0
M  V30 24 C 4.237206 3.157974 1.015369 0
M  V30 25 C 3.894577 2.708381 2.300825 0
M  V30 26 C 3.555709 3.699479 3.389226 0
M  V30 27 F 4.672602 4.285216 3.906194 0
M  V30 28 F 2.771957 4.723484 2.950206 0
M  V30 29 F 2.903794 3.148034 4.450741 0
M  V30 30 C 3.876675 1.328837 2.553643 0
M  V30 31 C 3.383722 -2.851053 -0.654243 0
M  V30 32 O 4.550795 -3.142063 -0.752535 0
M  V30 33 C 2.209033 -3.090673 -1.519277 0
M  V30 34 O 2.061735 -3.682930 -2.559904 0
M  V30 35 C -0.346496 -0.203340 1.039990 0
M  V30 36 C -0.366047 -0.108954 2.442953 0
M  V30 37 C -0.013897 1.081128 3.044192 0
M  V30 38 N 0.352607 2.177266 2.359546 0
M  V30 39 C 0.362544 2.116190 1.019376 0
M  V30 40 C 0.724963 3.266812 0.334826 0
M  V30 41 C 0.792107 3.315619 -1.059704 0
M  V30 42 C 0.474572 2.187236 -1.798227 0
M  V30 43 O 0.496236 2.084070 -3.160161 0
M  V30 44 C 1.046757 3.181517 -3.878889 0
M  V30 45 C 0.080918 1.027150 -1.125372 0
M  V30 46 C 0.024088 0.952221 0.289992 0
M  V30 47 H -7.181161 -1.259114 -2.350292 0
M  V30 48 H -6.863324 0.482398 -2.319971 0
M  V30 49 H -5.726584 -0.605318 -3.127058 0
M  V30 50 H -4.878928 0.136595 -0.888911 0
M  V30 51 H -6.344357 -0.478789 -0.128798 0
M  V30 52 H -5.773443 -2.790715 -0.997152 0
M  V30 53 H -4.078430 -3.095251 -2.457140 0
M  V30 54 H -3.642873 -1.407769 -2.408295 0
M  V30 55 H -1.871677 -4.147364 0.250134 0
M  V30 56 H -2.984456 -4.691851 -0.973368 0
M  V30 57 H -3.608834 -3.965585 1.722816 0
M  V30 58 H -4.745230 -4.439018 0.458825 0
M  V30 59 H -5.301267 -2.159823 1.386012 0
M  V30 60 H -2.901314 -1.643584 1.962147 0
M  V30 61 H -3.648306 -0.322571 1.072119 0
M  V30 62 H -2.303335 -0.562668 -0.738943 0
M  V30 63 H -0.743834 -2.309295 1.221048 0
M  V30 64 H -0.456461 -2.467427 -1.366589 0
M  V30 65 H 2.028604 -0.940642 1.840831 0
M  V30 66 H 4.222866 -1.272638 2.882130 0
M  V30 67 H 4.882062 -1.618672 1.298188 0
M  V30 68 H 4.717959 0.162073 -0.533523 0
M  V30 69 H 4.255265 4.229534 0.810054 0
M  V30 70 H 3.598851 0.972282 3.545531 0
M  V30 71 H -0.649541 -0.952768 3.065287 0
M  V30 72 H -0.016689 1.189622 4.125353 0
M  V30 73 H 0.969647 4.159842 0.906940 0
M  V30 74 H 1.090881 4.247874 -1.526840 0
M  V30 75 H 2.079683 3.378271 -3.573139 0
M  V30 76 H 1.058581 2.913848 -4.939814 0
M  V30 77 H 0.423953 4.075060 -3.767673 0
M  V30 78 H -0.173244 0.164717 -1.736203 0
M  V30 END ATOM
M  V30 BEGIN BOND
M  V30 1 1 1 2
M  V30 2 1 2 3
M  V30 3 1 3 4
M  V30 4 1 4 5
M  V30 5 1 5 6
M  V30 6 1 6 7
M  V30 7 1 7 8
M  V30 8 1 8 9
M  V30 9 1 9 10
M  V30 10 1 10 11
M  V30 11 1 11 12
M  V30 12 1 12 13
M  V30 13 2 13 14
M  V30 14 1 14 15
M  V30 15 1 15 16
M  V30 16 1 16 17
M  V30 17 2 17 18
M  V30 18 1 18 19
M  V30 19 1 19 20
M  V30 20 1 20 21
M  V30 21 1 20 22
M  V30 22 1 20 23
M  V30 23 2 19 24
M  V30 24 1 24 25
M  V30 25 1 25 26
M  V30 26 1 26 27
M  V30 27 1 26 28
M  V30 28 1 26 29
M  V30 29 2 25 30
M  V30 30 1 14 31
M  V30 31 2 31 32
M  V30 32 1 31 33
M  V30 33 2 33 34
M  V30 34 1 11 35
M  V30 35 2 35 36
M  V30 36 1 36 37
M  V30 37 2 37 38
M  V30 38 1 38 39
M  V30 39 2 39 40
M  V30 40 1 40 41
M  V30 41 2 41 42
M  V30 42 1 42 43
M  V30 43 1 43 44
M  V30 44 1 42 45
M  V30 45 2 45 46
M  V30 46 1 8 3
M  V30 47 1 33 13
M  V30 48 1 46 35
M  V30 49 1 10 5
M  V30 50 1 30 17
M  V30 51 1 46 39
M  V30 52 1 1 47
M  V30 53 1 1 48
M  V30 54 1 1 49
M  V30 55 1 2 50
M  V30 56 1 2 51
M  V30 57 1 3 52 CFG=3
M  V30 58 1 4 53
M  V30 59 1 4 54
M  V30 60 1 6 55
M  V30 61 1 6 56
M  V30 62 1 7 57
M  V30 63 1 7 58
M  V30 64 1 8 59 CFG=1
M  V30 65 1 9 60
M  V30 66 1 9 61
M  V30 67 1 10 62 CFG=3
M  V30 68 1 11 63 CFG=1
M  V30 69 1 12 64
M  V30 70 1 15 65
M  V30 71 1 16 66
M  V30 72 1 16 67
M  V30 73 1 18 68
M  V30 74 1 24 69
M  V30 75 1 30 70
M  V30 76 1 36 71
M  V30 77 1 37 72
M  V30 78 1 40 73
M  V30 79 1 41 74
M  V30 80 1 44 75
M  V30 81 1 44 76
M  V30 82 1 44 77
M  V30 83 1 45 78
M  V30 END BOND
M  V30 END CTAB
M  END
>  <catalyst_id>  (1) 
IBNVQUNAJFCWQL_MOVYAIRMSA_NONE

>  <source_smiles>  (1) 
CC[C@H]1CN2CC[C@H]1C[C@H]2[C@@H](Nc1c(NCc2cc(C(F)(F)F)cc(C(F)(F)F)c2)c(=O)c1=O)c1ccnc2ccc(OC)cc12

>  <axial_configuration>  (1) 
none

>  <inchikey>  (1) 
IBNVQUNAJFCWQL-MOVYAIRMSA-N

>  <build_source>  (1) 
smiles

>  <rdkit_version>  (1) 
2025.09.6

>  <random_seed>  (1) 
42

>  <generated_at>  (1) 
2026-05-19T12:34:10

$$$$
