catalyst406
     RDKit          3D

  0  0  0  0  0  0  0  0  0  0999 V3000
M  V30 BEGIN CTAB
M  V30 COUNTS 59 62 0 0 0
M  V30 BEGIN ATOM
M  V30 1 O 2.394357 -0.076171 3.908508 0
M  V30 2 C 1.516415 -0.353578 3.127184 0
M  V30 3 C 1.286441 -0.471453 1.664152 0
M  V30 4 N 2.076579 -0.269930 0.628759 0
M  V30 5 C 3.480089 -0.139250 0.542097 0
M  V30 6 C 4.016742 0.543058 -0.561894 0
M  V30 7 C 5.397594 0.768993 -0.694395 0
M  V30 8 C 5.938262 1.490651 -1.904844 0
M  V30 9 F 6.173346 0.644210 -2.944259 0
M  V30 10 F 7.115124 2.131667 -1.666514 0
M  V30 11 F 5.085473 2.439961 -2.381486 0
M  V30 12 C 6.259224 0.287160 0.299450 0
M  V30 13 C 5.753834 -0.399735 1.412714 0
M  V30 14 C 6.682876 -0.898557 2.495003 0
M  V30 15 F 6.911813 0.036372 3.455692 0
M  V30 16 F 6.215393 -2.003067 3.139040 0
M  V30 17 F 7.909742 -1.245654 2.012318 0
M  V30 18 C 4.364879 -0.591882 1.525201 0
M  V30 19 C -0.039371 -0.788943 1.854266 0
M  V30 20 N -1.127508 -1.065763 1.161815 0
M  V30 21 C -1.275923 -0.880790 -0.287385 0 CFG=1
M  V30 22 C -0.642898 -2.056801 -1.044662 0
M  V30 23 C -0.820258 -1.900900 -2.552839 0
M  V30 24 C -2.287168 -1.739576 -2.938790 0
M  V30 25 C -2.962794 -0.601784 -2.171934 0
M  V30 26 C -2.799689 -0.781098 -0.649760 0 CFG=2
M  V30 27 N -3.522072 0.216678 0.173788 0
M  V30 28 C -4.984971 0.085335 0.117151 0
M  V30 29 C -5.692302 1.293898 -0.492612 0
M  V30 30 C -5.354222 2.581106 0.254709 0
M  V30 31 C -3.937664 2.567308 0.825288 0
M  V30 32 C -3.031519 1.594988 0.070716 0
M  V30 33 C 0.098126 -0.717680 3.330726 0
M  V30 34 O -0.583039 -0.858631 4.315944 0
M  V30 35 H 1.654599 -0.250484 -0.297558 0
M  V30 36 H 3.348614 0.927143 -1.332747 0
M  V30 37 H 7.334830 0.448896 0.208846 0
M  V30 38 H 3.995828 -1.138105 2.390240 0
M  V30 39 H -2.041712 -1.008392 1.629662 0
M  V30 40 H -0.776378 0.049464 -0.589295 0
M  V30 41 H 0.425140 -2.138282 -0.816835 0
M  V30 42 H -1.097172 -3.001322 -0.717516 0
M  V30 43 H -0.400257 -2.774166 -3.064628 0
M  V30 44 H -0.254132 -1.026644 -2.897254 0
M  V30 45 H -2.820340 -2.677433 -2.739440 0
M  V30 46 H -2.365139 -1.553053 -4.015919 0
M  V30 47 H -2.524193 0.349004 -2.496683 0
M  V30 48 H -4.022417 -0.577011 -2.449334 0
M  V30 49 H -3.232151 -1.758446 -0.385784 0
M  V30 50 H -5.296434 -0.820915 -0.416246 0
M  V30 51 H -5.342433 -0.044936 1.146607 0
M  V30 52 H -6.777410 1.139852 -0.487249 0
M  V30 53 H -5.398987 1.395614 -1.545176 0
M  V30 54 H -5.476943 3.430927 -0.427293 0
M  V30 55 H -6.066310 2.739005 1.073610 0
M  V30 56 H -3.517301 3.579113 0.793959 0
M  V30 57 H -3.974358 2.281354 1.884699 0
M  V30 58 H -2.027290 1.667598 0.501538 0
M  V30 59 H -2.962565 1.921078 -0.973349 0
M  V30 END ATOM
M  V30 BEGIN BOND
M  V30 1 2 1 2
M  V30 2 1 2 3
M  V30 3 1 3 4
M  V30 4 1 4 5
M  V30 5 2 5 6
M  V30 6 1 6 7
M  V30 7 1 7 8
M  V30 8 1 8 9
M  V30 9 1 8 10
M  V30 10 1 8 11
M  V30 11 2 7 12
M  V30 12 1 12 13
M  V30 13 1 13 14
M  V30 14 1 14 15
M  V30 15 1 14 16
M  V30 16 1 14 17
M  V30 17 2 13 18
M  V30 18 2 3 19
M  V30 19 1 19 20
M  V30 20 1 20 21
M  V30 21 1 21 22
M  V30 22 1 22 23
M  V30 23 1 23 24
M  V30 24 1 24 25
M  V30 25 1 25 26
M  V30 26 1 26 27
M  V30 27 1 27 28
M  V30 28 1 28 29
M  V30 29 1 29 30
M  V30 30 1 30 31
M  V30 31 1 31 32
M  V30 32 1 19 33
M  V30 33 2 33 34
M  V30 34 1 33 2
M  V30 35 1 18 5
M  V30 36 1 26 21
M  V30 37 1 32 27
M  V30 38 1 4 35
M  V30 39 1 6 36
M  V30 40 1 12 37
M  V30 41 1 18 38
M  V30 42 1 20 39
M  V30 43 1 21 40 CFG=3
M  V30 44 1 22 41
M  V30 45 1 22 42
M  V30 46 1 23 43
M  V30 47 1 23 44
M  V30 48 1 24 45
M  V30 49 1 24 46
M  V30 50 1 25 47
M  V30 51 1 25 48
M  V30 52 1 26 49 CFG=1
M  V30 53 1 28 50
M  V30 54 1 28 51
M  V30 55 1 29 52
M  V30 56 1 29 53
M  V30 57 1 30 54
M  V30 58 1 30 55
M  V30 59 1 31 56
M  V30 60 1 31 57
M  V30 61 1 32 58
M  V30 62 1 32 59
M  V30 END BOND
M  V30 END CTAB
M  END
>  <catalyst_id>  (1) 
XUZPZFXQOUOXFH_IRXDYDNUSA_NONE

>  <source_smiles>  (1) 
O=c1c(Nc2cc(C(F)(F)F)cc(C(F)(F)F)c2)c(N[C@H]2CCCC[C@@H]2N2CCCCC2)c1=O

>  <axial_configuration>  (1) 
none

>  <inchikey>  (1) 
XUZPZFXQOUOXFH-IRXDYDNUSA-N

>  <build_source>  (1) 
smiles

>  <rdkit_version>  (1) 
2025.09.6

>  <random_seed>  (1) 
42

>  <generated_at>  (1) 
2026-05-19T12:34:28

$$$$
