catalyst82
     RDKit          3D

  0  0  0  0  0  0  0  0  0  0999 V3000
M  V30 BEGIN CTAB
M  V30 COUNTS 68 71 0 0 0
M  V30 BEGIN ATOM
M  V30 1 F 6.584260 5.768518 1.044519 0
M  V30 2 C 6.494333 5.001159 -0.077916 0
M  V30 3 F 5.867578 5.771702 -1.009205 0
M  V30 4 F 7.773792 4.846660 -0.522346 0
M  V30 5 C 5.788225 3.688262 0.152241 0
M  V30 6 C 6.064942 2.579184 -0.661217 0
M  V30 7 C 5.396317 1.368064 -0.465109 0
M  V30 8 C 4.436731 1.242026 0.547778 0
M  V30 9 C 3.702194 -0.062261 0.755724 0
M  V30 10 N 2.304129 0.076925 0.351611 0
M  V30 11 C 1.531635 -1.180672 0.523404 0 CFG=2
M  V30 12 C 1.947573 -2.257242 -0.472267 0
M  V30 13 C 2.393008 -3.503339 -0.002946 0
M  V30 14 C 2.769676 -4.507587 -0.896152 0
M  V30 15 C 2.706531 -4.280999 -2.268880 0
M  V30 16 C 2.265108 -3.051111 -2.750878 0
M  V30 17 C 1.886610 -2.045051 -1.860141 0
M  V30 18 C -0.017242 -0.880901 0.439680 0 CFG=2
M  V30 19 N -0.312017 0.427781 1.059701 0
M  V30 20 C -1.408555 1.224545 0.863121 0
M  V30 21 S -1.207061 2.850676 1.180775 0
M  V30 22 N -2.540733 0.560635 0.465056 0
M  V30 23 C -3.762885 1.020403 -0.066641 0
M  V30 24 C -4.853160 0.143733 0.013670 0
M  V30 25 C -6.109070 0.488183 -0.512445 0
M  V30 26 C -7.274097 -0.462611 -0.382230 0
M  V30 27 F -7.919485 -0.330293 0.808005 0
M  V30 28 F -8.219810 -0.284171 -1.345738 0
M  V30 29 F -6.902349 -1.770529 -0.465251 0
M  V30 30 C -6.264408 1.738285 -1.127364 0
M  V30 31 C -5.181141 2.623727 -1.235759 0
M  V30 32 C -5.331683 3.948988 -1.945059 0
M  V30 33 F -4.896589 3.893306 -3.233828 0
M  V30 34 F -4.634128 4.956465 -1.353975 0
M  V30 35 F -6.623856 4.377191 -2.006316 0
M  V30 36 C -3.931044 2.244051 -0.714455 0
M  V30 37 C -0.826380 -2.003411 1.077452 0
M  V30 38 C -1.422562 -2.983850 0.268563 0
M  V30 39 C -2.174989 -4.011904 0.837765 0
M  V30 40 C -2.338154 -4.074978 2.219865 0
M  V30 41 C -1.745950 -3.113450 3.035631 0
M  V30 42 C -0.991536 -2.085261 2.469625 0
M  V30 43 C 4.149622 2.353824 1.352266 0
M  V30 44 C 4.816215 3.565238 1.155308 0
M  V30 45 H 6.806523 2.655480 -1.455377 0
M  V30 46 H 5.629077 0.523520 -1.110758 0
M  V30 47 H 4.204516 -0.854772 0.189045 0
M  V30 48 H 3.772219 -0.331819 1.816861 0
M  V30 49 H 2.269896 0.373684 -0.622344 0
M  V30 50 H 1.737310 -1.534522 1.543641 0
M  V30 51 H 2.443054 -3.705426 1.065371 0
M  V30 52 H 3.110391 -5.468889 -0.519562 0
M  V30 53 H 3.000212 -5.064162 -2.963184 0
M  V30 54 H 2.215145 -2.875565 -3.822730 0
M  V30 55 H 1.542555 -1.095466 -2.263831 0
M  V30 56 H -0.322456 -0.771338 -0.609584 0
M  V30 57 H 0.534287 0.967188 1.236553 0
M  V30 58 H -2.561471 -0.398380 0.788399 0
M  V30 59 H -4.737117 -0.824317 0.501955 0
M  V30 60 H -7.236227 2.022482 -1.534949 0
M  V30 61 H -3.093766 2.921213 -0.859268 0
M  V30 62 H -1.300315 -2.957722 -0.812989 0
M  V30 63 H -2.630499 -4.767673 0.202374 0
M  V30 64 H -2.923685 -4.877166 2.662208 0
M  V30 65 H -1.871625 -3.163963 4.114491 0
M  V30 66 H -0.540186 -1.339294 3.121916 0
M  V30 67 H 3.392844 2.280781 2.131464 0
M  V30 68 H 4.569721 4.416215 1.788975 0
M  V30 END ATOM
M  V30 BEGIN BOND
M  V30 1 1 1 2
M  V30 2 1 2 3
M  V30 3 1 2 4
M  V30 4 1 2 5
M  V30 5 2 5 6
M  V30 6 1 6 7
M  V30 7 2 7 8
M  V30 8 1 8 9
M  V30 9 1 9 10
M  V30 10 1 10 11
M  V30 11 1 11 12
M  V30 12 2 12 13
M  V30 13 1 13 14
M  V30 14 2 14 15
M  V30 15 1 15 16
M  V30 16 2 16 17
M  V30 17 1 11 18
M  V30 18 1 18 19
M  V30 19 1 19 20
M  V30 20 2 20 21
M  V30 21 1 20 22
M  V30 22 1 22 23
M  V30 23 2 23 24
M  V30 24 1 24 25
M  V30 25 1 25 26
M  V30 26 1 26 27
M  V30 27 1 26 28
M  V30 28 1 26 29
M  V30 29 2 25 30
M  V30 30 1 30 31
M  V30 31 1 31 32
M  V30 32 1 32 33
M  V30 33 1 32 34
M  V30 34 1 32 35
M  V30 35 2 31 36
M  V30 36 1 18 37
M  V30 37 2 37 38
M  V30 38 1 38 39
M  V30 39 2 39 40
M  V30 40 1 40 41
M  V30 41 2 41 42
M  V30 42 1 8 43
M  V30 43 2 43 44
M  V30 44 1 44 5
M  V30 45 1 17 12
M  V30 46 1 36 23
M  V30 47 1 42 37
M  V30 48 1 6 45
M  V30 49 1 7 46
M  V30 50 1 9 47
M  V30 51 1 9 48
M  V30 52 1 10 49
M  V30 53 1 11 50 CFG=1
M  V30 54 1 13 51
M  V30 55 1 14 52
M  V30 56 1 15 53
M  V30 57 1 16 54
M  V30 58 1 17 55
M  V30 59 1 18 56 CFG=3
M  V30 60 1 19 57
M  V30 61 1 22 58
M  V30 62 1 24 59
M  V30 63 1 30 60
M  V30 64 1 36 61
M  V30 65 1 38 62
M  V30 66 1 39 63
M  V30 67 1 40 64
M  V30 68 1 41 65
M  V30 69 1 42 66
M  V30 70 1 43 67
M  V30 71 1 44 68
M  V30 END BOND
M  V30 END CTAB
M  END
>  <catalyst_id>  (1) 
GQIRPCFBQDSSCN_KAYWLYCHSA_NONE

>  <source_smiles>  (1) 
FC(F)(F)c1ccc(CN[C@H](c2ccccc2)[C@H](NC(=S)Nc2cc(C(F)(F)F)cc(C(F)(F)F)c2)c2ccccc2)cc1

>  <axial_configuration>  (1) 
none

>  <inchikey>  (1) 
GQIRPCFBQDSSCN-KAYWLYCHSA-N

>  <build_source>  (1) 
smiles

>  <rdkit_version>  (1) 
2025.09.6

>  <random_seed>  (1) 
42

>  <generated_at>  (1) 
2026-05-19T12:30:09

$$$$
