catalyst72
     RDKit          3D

  0  0  0  0  0  0  0  0  0  0999 V3000
M  V30 BEGIN CTAB
M  V30 COUNTS 103 109 0 0 0
M  V30 BEGIN ATOM
M  V30 1 C -4.145935 -1.804058 -4.544063 0
M  V30 2 C -4.435685 -2.246282 -3.142933 0
M  V30 3 O -5.311464 -3.042478 -2.835341 0
M  V30 4 O -3.598242 -1.617931 -2.273604 0
M  V30 5 C -3.767362 -1.922903 -0.876480 0
M  V30 6 C -4.212291 -0.676258 -0.092006 0 CFG=1
M  V30 7 O -3.129684 0.261424 -0.075372 0
M  V30 8 C -3.384251 1.401950 0.745331 0 CFG=1
M  V30 9 N -2.179781 2.210470 0.674944 0
M  V30 10 C -0.953187 1.896808 1.182590 0
M  V30 11 S 0.134286 3.129662 1.436883 0
M  V30 12 N -0.769243 0.572611 1.452839 0
M  V30 13 C 0.475290 -0.101625 1.876761 0 CFG=1
M  V30 14 C 0.123967 -1.330180 2.734017 0
M  V30 15 C -0.553165 -2.438990 1.932268 0
M  V30 16 C 0.236575 -2.809407 0.683060 0
M  V30 17 C 0.607788 -1.583376 -0.154172 0
M  V30 18 C 1.385030 -0.500968 0.651249 0 CFG=2
M  V30 19 N 2.748046 -0.935611 1.090073 0
M  V30 20 C 3.483918 -1.717234 0.066812 0
M  V30 21 C 4.919827 -2.038830 0.455694 0
M  V30 22 C 5.248667 -3.324282 0.897345 0
M  V30 23 C 6.538492 -3.606488 1.335589 0
M  V30 24 C 7.514853 -2.604856 1.392004 0
M  V30 25 C 8.792663 -2.908061 1.892435 0
M  V30 26 C 9.772335 -1.924536 2.008779 0
M  V30 27 C 9.482099 -0.620856 1.635784 0
M  V30 28 C 8.217937 -0.307449 1.130498 0
M  V30 29 C 7.206136 -1.286718 0.967800 0
M  V30 30 C 5.904394 -1.015587 0.435540 0
M  V30 31 C 5.492963 0.332579 -0.059808 0
M  V30 32 C 4.372732 0.951499 0.559385 0
M  V30 33 C 3.976255 2.231814 0.165273 0
M  V30 34 C 4.645799 2.892993 -0.859417 0
M  V30 35 C 5.699011 2.277830 -1.544994 0
M  V30 36 C 6.317454 2.947988 -2.614191 0
M  V30 37 C 7.339369 2.346980 -3.345604 0
M  V30 38 C 7.749205 1.062165 -3.022328 0
M  V30 39 C 7.147041 0.387760 -1.957274 0
M  V30 40 C 6.125028 0.977656 -1.171785 0
M  V30 41 C 3.564344 0.199769 1.607887 0
M  V30 42 C -4.642839 2.172476 0.288816 0 CFG=2
M  V30 43 O -5.028303 3.160677 1.279476 0
M  V30 44 C -4.417775 4.370502 1.205125 0
M  V30 45 C -4.958820 5.294737 2.250439 0
M  V30 46 O -3.536625 4.655086 0.407248 0
M  V30 47 C -5.832857 1.213446 0.138509 0 CFG=1
M  V30 48 O -6.899151 1.915109 -0.550558 0
M  V30 49 C -7.940962 2.358234 0.200241 0
M  V30 50 C -8.943746 3.045766 -0.674378 0
M  V30 51 O -8.055947 2.220490 1.409003 0
M  V30 52 C -5.462788 -0.021713 -0.691030 0 CFG=2
M  V30 53 O -6.546267 -0.974047 -0.634105 0
M  V30 54 C -7.394501 -0.990977 -1.700736 0
M  V30 55 C -8.439160 -2.046389 -1.507486 0
M  V30 56 O -7.328607 -0.249836 -2.670700 0
M  V30 57 H -3.103760 -2.018809 -4.793429 0
M  V30 58 H -4.354433 -0.736023 -4.644502 0
M  V30 59 H -4.788238 -2.354166 -5.237641 0
M  V30 60 H -2.787132 -2.252086 -0.516870 0
M  V30 61 H -4.469154 -2.747242 -0.710347 0
M  V30 62 H -4.404647 -1.000764 0.939639 0
M  V30 63 H -3.491192 1.080181 1.789531 0
M  V30 64 H -2.301132 3.207737 0.493938 0
M  V30 65 H -1.420243 -0.007881 0.936207 0
M  V30 66 H 0.995120 0.602957 2.529333 0
M  V30 67 H -0.535791 -1.033697 3.558829 0
M  V30 68 H 1.037955 -1.727832 3.192304 0
M  V30 69 H -1.563056 -2.123511 1.646214 0
M  V30 70 H -0.676358 -3.325825 2.564682 0
M  V30 71 H 1.138906 -3.353644 0.982063 0
M  V30 72 H -0.354584 -3.501354 0.072022 0
M  V30 73 H 1.164550 -1.895247 -1.044565 0
M  V30 74 H -0.312911 -1.141000 -0.555617 0
M  V30 75 H 1.493885 0.363979 -0.015782 0
M  V30 76 H 2.982709 -2.677293 -0.093984 0
M  V30 77 H 3.474785 -1.216746 -0.911195 0
M  V30 78 H 4.496707 -4.109457 0.918211 0
M  V30 79 H 6.765208 -4.616386 1.671091 0
M  V30 80 H 9.032566 -3.920730 2.210080 0
M  V30 81 H 10.753260 -2.175231 2.402854 0
M  V30 82 H 10.232376 0.158648 1.737934 0
M  V30 83 H 8.026801 0.731021 0.867072 0
M  V30 84 H 3.134179 2.721765 0.646194 0
M  V30 85 H 4.309016 3.888895 -1.140850 0
M  V30 86 H 5.996211 3.949308 -2.894127 0
M  V30 87 H 7.803482 2.877893 -4.172071 0
M  V30 88 H 8.535032 0.577258 -3.595222 0
M  V30 89 H 7.487399 -0.624415 -1.747859 0
M  V30 90 H 2.957617 0.915928 2.169572 0
M  V30 91 H 4.250737 -0.184851 2.374895 0
M  V30 92 H -4.472388 2.664701 -0.678760 0
M  V30 93 H -4.493488 6.278327 2.140160 0
M  V30 94 H -6.038639 5.406509 2.123345 0
M  V30 95 H -4.726305 4.905167 3.244515 0
M  V30 96 H -6.182215 0.883848 1.125804 0
M  V30 97 H -9.777922 3.398653 -0.061299 0
M  V30 98 H -9.329890 2.343607 -1.417582 0
M  V30 99 H -8.480892 3.907392 -1.161970 0
M  V30 100 H -5.259548 0.292952 -1.722764 0
M  V30 101 H -7.962806 -3.019398 -1.363118 0
M  V30 102 H -9.069381 -2.099579 -2.399772 0
M  V30 103 H -9.065264 -1.793129 -0.648492 0
M  V30 END ATOM
M  V30 BEGIN BOND
M  V30 1 1 1 2
M  V30 2 2 2 3
M  V30 3 1 2 4
M  V30 4 1 4 5
M  V30 5 1 5 6
M  V30 6 1 6 7
M  V30 7 1 7 8
M  V30 8 1 8 9
M  V30 9 1 9 10
M  V30 10 2 10 11
M  V30 11 1 10 12
M  V30 12 1 12 13
M  V30 13 1 13 14
M  V30 14 1 14 15
M  V30 15 1 15 16
M  V30 16 1 16 17
M  V30 17 1 17 18
M  V30 18 1 18 19
M  V30 19 1 19 20
M  V30 20 1 20 21
M  V30 21 2 21 22
M  V30 22 1 22 23
M  V30 23 2 23 24
M  V30 24 1 24 25
M  V30 25 2 25 26
M  V30 26 1 26 27
M  V30 27 2 27 28
M  V30 28 1 28 29
M  V30 29 2 29 30
M  V30 30 1 30 31
M  V30 31 2 31 32
M  V30 32 1 32 33
M  V30 33 2 33 34
M  V30 34 1 34 35
M  V30 35 2 35 36
M  V30 36 1 36 37
M  V30 37 2 37 38
M  V30 38 1 38 39
M  V30 39 2 39 40
M  V30 40 1 32 41
M  V30 41 1 8 42
M  V30 42 1 42 43
M  V30 43 1 43 44
M  V30 44 1 44 45
M  V30 45 2 44 46
M  V30 46 1 42 47
M  V30 47 1 47 48
M  V30 48 1 48 49
M  V30 49 1 49 50
M  V30 50 2 49 51
M  V30 51 1 47 52
M  V30 52 1 52 53
M  V30 53 1 53 54
M  V30 54 1 54 55
M  V30 55 2 54 56
M  V30 56 1 52 6
M  V30 57 1 18 13
M  V30 58 1 41 19
M  V30 59 1 30 21
M  V30 60 1 40 31
M  V30 61 1 29 24
M  V30 62 1 40 35
M  V30 63 1 1 57
M  V30 64 1 1 58
M  V30 65 1 1 59
M  V30 66 1 5 60
M  V30 67 1 5 61
M  V30 68 1 6 62 CFG=1
M  V30 69 1 8 63 CFG=1
M  V30 70 1 9 64
M  V30 71 1 12 65
M  V30 72 1 13 66 CFG=1
M  V30 73 1 14 67
M  V30 74 1 14 68
M  V30 75 1 15 69
M  V30 76 1 15 70
M  V30 77 1 16 71
M  V30 78 1 16 72
M  V30 79 1 17 73
M  V30 80 1 17 74
M  V30 81 1 18 75 CFG=3
M  V30 82 1 20 76
M  V30 83 1 20 77
M  V30 84 1 22 78
M  V30 85 1 23 79
M  V30 86 1 25 80
M  V30 87 1 26 81
M  V30 88 1 27 82
M  V30 89 1 28 83
M  V30 90 1 33 84
M  V30 91 1 34 85
M  V30 92 1 36 86
M  V30 93 1 37 87
M  V30 94 1 38 88
M  V30 95 1 39 89
M  V30 96 1 41 90
M  V30 97 1 41 91
M  V30 98 1 42 92 CFG=3
M  V30 99 1 45 93
M  V30 100 1 45 94
M  V30 101 1 45 95
M  V30 102 1 47 96 CFG=1
M  V30 103 1 50 97
M  V30 104 1 50 98
M  V30 105 1 50 99
M  V30 106 1 52 100 CFG=3
M  V30 107 1 55 101
M  V30 108 1 55 102
M  V30 109 1 55 103
M  V30 END BOND
M  V30 END CTAB
M  END
>  <catalyst_id>  (1) 
GACABSBYFIMBBQ_UDKWURJKSA_S

>  <source_smiles>  (1) 
CC(=O)OC[C@H]1O[C@@H](NC(=S)N[C@H]2CCCC[C@@H]2N2Cc3ccc4ccccc4c3-c3c(ccc4ccccc34)C2)[C@H](OC(C)=O)[C@@H](OC(C)=O)[C@@H]1OC(C)=O

>  <axial_configuration>  (1) 
S

>  <inchikey>  (1) 
GACABSBYFIMBBQ-UDKWURJKSA-N

>  <build_source>  (1) 
smiles+axial_bridged

>  <final_biaryl_angle_deg>  (1) 
-121.09

>  <n_valid_conformers>  (1) 
14

>  <rdkit_version>  (1) 
2025.09.6

>  <random_seed>  (1) 
42

>  <generated_at>  (1) 
2026-05-19T12:35:55

$$$$
