catalyst318
     RDKit          3D

  0  0  0  0  0  0  0  0  0  0999 V3000
M  V30 BEGIN CTAB
M  V30 COUNTS 79 81 0 0 0
M  V30 BEGIN ATOM
M  V30 1 C -0.201737 2.558710 4.305177 0
M  V30 2 C 0.642266 3.181462 3.202073 0
M  V30 3 C 1.542511 2.169408 2.458853 0 CFG=2
M  V30 4 C 2.538410 2.937322 1.575391 0
M  V30 5 C 0.743619 1.093079 1.660492 0 CFG=1
M  V30 6 C 0.059666 1.643061 0.398339 0
M  V30 7 P -1.483461 0.809182 -0.102098 0 CHG=1
M  V30 8 C -0.965119 -0.854763 -0.568992 0
M  V30 9 C -1.960949 -1.730401 -1.290253 0
M  V30 10 C -2.806915 -2.595973 -0.583926 0
M  V30 11 C -3.738277 -3.383862 -1.262764 0
M  V30 12 C -3.824903 -3.306357 -2.646878 0
M  V30 13 F -4.720885 -4.061801 -3.295764 0
M  V30 14 C -2.996332 -2.456318 -3.366729 0
M  V30 15 C -2.064498 -1.669167 -2.689427 0
M  V30 16 C -2.160267 1.611773 -1.537015 0
M  V30 17 C -3.499324 1.384936 -1.888544 0
M  V30 18 C -4.058514 1.984066 -3.017785 0
M  V30 19 C -3.283717 2.819600 -3.816164 0
M  V30 20 C -1.951155 3.051028 -3.485177 0
M  V30 21 C -1.392992 2.449062 -2.354504 0
M  V30 22 C -2.596836 0.862861 1.271829 0
M  V30 23 C -3.376650 2.007527 1.490962 0
M  V30 24 C -4.246419 2.088545 2.579757 0
M  V30 25 C -4.339672 1.027977 3.475667 0
M  V30 26 C -3.558252 -0.107798 3.284346 0
M  V30 27 C -2.690886 -0.185997 2.192417 0
M  V30 28 N 1.645253 -0.019758 1.287847 0
M  V30 29 C 1.957259 -1.112612 2.047640 0
M  V30 30 S 1.252679 -1.530134 3.505657 0
M  V30 31 N 2.960924 -1.924218 1.596282 0
M  V30 32 C 3.567934 -2.087904 0.335919 0
M  V30 33 C 4.756756 -2.825545 0.292756 0
M  V30 34 C 5.430335 -3.054636 -0.919473 0
M  V30 35 C 6.707609 -3.860892 -0.941181 0
M  V30 36 F 7.449576 -3.709300 0.190349 0
M  V30 37 F 7.529561 -3.527255 -1.973822 0
M  V30 38 F 6.471936 -5.194962 -1.061723 0
M  V30 39 C 4.875980 -2.556917 -2.107923 0
M  V30 40 C 3.674323 -1.834315 -2.089508 0
M  V30 41 C 3.050959 -1.335903 -3.372353 0
M  V30 42 F 2.244454 -2.264134 -3.951804 0
M  V30 43 F 2.280544 -0.226677 -3.189367 0
M  V30 44 F 3.974815 -0.995628 -4.312344 0
M  V30 45 C 3.026019 -1.620046 -0.860780 0
M  V30 46 Br 0.000000 0.000000 0.000000 0 CHG=-1
M  V30 47 H -0.962066 1.885513 3.904046 0
M  V30 48 H -0.721909 3.342675 4.865199 0
M  V30 49 H 0.421823 1.998969 5.009162 0
M  V30 50 H 1.278244 3.946676 3.665436 0
M  V30 51 H -0.012884 3.710914 2.502023 0
M  V30 52 H 2.140651 1.653213 3.222156 0
M  V30 53 H 2.028883 3.547420 0.822892 0
M  V30 54 H 3.224411 2.258933 1.059561 0
M  V30 55 H 3.149631 3.611317 2.185961 0
M  V30 56 H -0.020876 0.677925 2.315155 0
M  V30 57 H 0.757991 1.616680 -0.445767 0
M  V30 58 H -0.229743 2.687737 0.548644 0
M  V30 59 H -0.593791 -1.390846 0.310273 0
M  V30 60 H -0.095753 -0.741124 -1.226301 0
M  V30 61 H -2.748698 -2.670088 0.498219 0
M  V30 62 H -4.396112 -4.054923 -0.720228 0
M  V30 63 H -3.082938 -2.405776 -4.446970 0
M  V30 64 H -1.428499 -0.995019 -3.260227 0
M  V30 65 H -4.115265 0.723500 -1.281545 0
M  V30 66 H -5.097242 1.792480 -3.273467 0
M  V30 67 H -3.716615 3.286313 -4.696699 0
M  V30 68 H -1.342844 3.699698 -4.110229 0
M  V30 69 H -0.349361 2.643925 -2.129996 0
M  V30 70 H -3.311246 2.850830 0.806545 0
M  V30 71 H -4.848079 2.981296 2.727887 0
M  V30 72 H -5.013284 1.089446 4.325912 0
M  V30 73 H -3.614279 -0.931665 3.991246 0
M  V30 74 H -2.069989 -1.070347 2.088589 0
M  V30 75 H 2.401489 0.259073 0.678206 0
M  V30 76 H 3.275881 -2.564353 2.320133 0
M  V30 77 H 5.185003 -3.221026 1.214044 0
M  V30 78 H 5.379998 -2.741889 -3.058505 0
M  V30 79 H 2.061835 -1.123800 -0.876807 0
M  V30 END ATOM
M  V30 BEGIN BOND
M  V30 1 1 1 2
M  V30 2 1 2 3
M  V30 3 1 3 4
M  V30 4 1 3 5
M  V30 5 1 5 6
M  V30 6 1 6 7
M  V30 7 1 7 8
M  V30 8 1 8 9
M  V30 9 2 9 10
M  V30 10 1 10 11
M  V30 11 2 11 12
M  V30 12 1 12 13
M  V30 13 1 12 14
M  V30 14 2 14 15
M  V30 15 1 7 16
M  V30 16 2 16 17
M  V30 17 1 17 18
M  V30 18 2 18 19
M  V30 19 1 19 20
M  V30 20 2 20 21
M  V30 21 1 7 22
M  V30 22 2 22 23
M  V30 23 1 23 24
M  V30 24 2 24 25
M  V30 25 1 25 26
M  V30 26 2 26 27
M  V30 27 1 5 28
M  V30 28 1 28 29
M  V30 29 2 29 30
M  V30 30 1 29 31
M  V30 31 1 31 32
M  V30 32 2 32 33
M  V30 33 1 33 34
M  V30 34 1 34 35
M  V30 35 1 35 36
M  V30 36 1 35 37
M  V30 37 1 35 38
M  V30 38 2 34 39
M  V30 39 1 39 40
M  V30 40 1 40 41
M  V30 41 1 41 42
M  V30 42 1 41 43
M  V30 43 1 41 44
M  V30 44 2 40 45
M  V30 45 1 15 9
M  V30 46 1 21 16
M  V30 47 1 27 22
M  V30 48 1 45 32
M  V30 49 1 1 47
M  V30 50 1 1 48
M  V30 51 1 1 49
M  V30 52 1 2 50
M  V30 53 1 2 51
M  V30 54 1 3 52 CFG=1
M  V30 55 1 4 53
M  V30 56 1 4 54
M  V30 57 1 4 55
M  V30 58 1 5 56 CFG=1
M  V30 59 1 6 57
M  V30 60 1 6 58
M  V30 61 1 8 59
M  V30 62 1 8 60
M  V30 63 1 10 61
M  V30 64 1 11 62
M  V30 65 1 14 63
M  V30 66 1 15 64
M  V30 67 1 17 65
M  V30 68 1 18 66
M  V30 69 1 19 67
M  V30 70 1 20 68
M  V30 71 1 21 69
M  V30 72 1 23 70
M  V30 73 1 24 71
M  V30 74 1 25 72
M  V30 75 1 26 73
M  V30 76 1 27 74
M  V30 77 1 28 75
M  V30 78 1 31 76
M  V30 79 1 33 77
M  V30 80 1 39 78
M  V30 81 1 45 79
M  V30 END BOND
M  V30 END CTAB
M  END
>  <catalyst_id>  (1) 
RZSNEVJZQVJBTN_GWXWNRNBSA_NONE

>  <source_smiles>  (1) 
CC[C@H](C)[C@@H](C[P+](Cc1ccc(F)cc1)(c1ccccc1)c1ccccc1)NC(=S)Nc1cc(C(F)(F)F)cc(C(F)(F)F)c1.[Br-]

>  <axial_configuration>  (1) 
none

>  <inchikey>  (1) 
RZSNEVJZQVJBTN-GWXWNRNBSA-N

>  <build_source>  (1) 
smiles

>  <rdkit_version>  (1) 
2025.09.6

>  <random_seed>  (1) 
42

>  <generated_at>  (1) 
2026-05-19T12:37:04

$$$$
