catalyst138
     RDKit          3D

  0  0  0  0  0  0  0  0  0  0999 V3000
M  V30 BEGIN CTAB
M  V30 COUNTS 69 72 0 0 0
M  V30 BEGIN ATOM
M  V30 1 C 5.507165 1.126798 -4.552183 0
M  V30 2 O 5.715143 0.401598 -3.347436 0
M  V30 3 C 4.617340 -0.184750 -2.780520 0
M  V30 4 C 4.874777 -0.896350 -1.607904 0
M  V30 5 C 3.842449 -1.544594 -0.925990 0
M  V30 6 C 2.525360 -1.479723 -1.398690 0
M  V30 7 C 1.397814 -2.188321 -0.680597 0
M  V30 8 N 1.443113 -2.071575 0.776726 0
M  V30 9 C 1.199567 -0.697606 1.277815 0 CFG=2
M  V30 10 C 2.202770 -0.401510 2.393057 0
M  V30 11 C 2.283550 -1.208502 3.540624 0
M  V30 12 C 3.194579 -0.913743 4.556435 0
M  V30 13 C 4.038666 0.188054 4.438744 0
M  V30 14 C 3.976412 0.993294 3.303715 0
M  V30 15 C 3.066393 0.700385 2.286354 0
M  V30 16 C -0.279785 -0.436911 1.780084 0 CFG=2
M  V30 17 N -1.307123 -0.930353 0.841289 0
M  V30 18 C -1.996597 -2.102651 0.867824 0
M  V30 19 S -1.698959 -3.386516 1.893644 0
M  V30 20 N -2.978246 -2.257046 -0.072632 0
M  V30 21 C -3.724888 -1.305768 -0.798032 0
M  V30 22 C -3.812490 0.045241 -0.450723 0
M  V30 23 C -4.578857 0.942950 -1.214339 0
M  V30 24 C -4.624594 2.404139 -0.829778 0
M  V30 25 F -4.911609 2.595019 0.485643 0
M  V30 26 F -5.557736 3.113417 -1.523400 0
M  V30 27 F -3.436887 3.029629 -1.056764 0
M  V30 28 C -5.278343 0.461250 -2.330893 0
M  V30 29 C -5.242014 -0.900269 -2.668495 0
M  V30 30 C -5.992674 -1.416265 -3.873514 0
M  V30 31 F -7.119357 -0.702660 -4.145089 0
M  V30 32 F -6.392677 -2.710386 -3.736794 0
M  V30 33 F -5.236792 -1.373165 -5.003960 0
M  V30 34 C -4.461935 -1.772984 -1.891378 0
M  V30 35 C -0.569459 1.041899 2.029972 0
M  V30 36 C -0.462089 2.000666 1.007240 0
M  V30 37 C -0.768615 3.340226 1.252319 0
M  V30 38 C -1.184866 3.740637 2.519417 0
M  V30 39 C -1.295840 2.802961 3.543146 0
M  V30 40 C -0.993274 1.462091 3.300476 0
M  V30 41 C 2.274889 -0.775093 -2.584517 0
M  V30 42 C 3.312103 -0.128806 -3.268501 0
M  V30 43 H 4.834686 1.975813 -4.390859 0
M  V30 44 H 5.135315 0.472780 -5.347855 0
M  V30 45 H 6.474252 1.525127 -4.873940 0
M  V30 46 H 5.888437 -0.948577 -1.218414 0
M  V30 47 H 4.068375 -2.090789 -0.011451 0
M  V30 48 H 1.466079 -3.251283 -0.942310 0
M  V30 49 H 0.429892 -1.839989 -1.057853 0
M  V30 50 H 0.740140 -2.691925 1.180890 0
M  V30 51 H 1.402961 0.009442 0.464749 0
M  V30 52 H 1.643264 -2.081704 3.644008 0
M  V30 53 H 3.249008 -1.548884 5.436477 0
M  V30 54 H 4.749609 0.415491 5.228271 0
M  V30 55 H 4.638796 1.849371 3.207300 0
M  V30 56 H 3.038152 1.338947 1.406105 0
M  V30 57 H -0.422905 -0.973612 2.724988 0
M  V30 58 H -1.376466 -0.407632 -0.018799 0
M  V30 59 H -3.274634 -3.223565 -0.174575 0
M  V30 60 H -3.331002 0.426211 0.448694 0
M  V30 61 H -5.871309 1.149834 -2.936022 0
M  V30 62 H -4.421431 -2.827621 -2.163951 0
M  V30 63 H -0.142209 1.717387 0.007489 0
M  V30 64 H -0.685257 4.072608 0.453158 0
M  V30 65 H -1.423099 4.783832 2.709795 0
M  V30 66 H -1.619722 3.114925 4.532815 0
M  V30 67 H -1.090421 0.746085 4.114359 0
M  V30 68 H 1.266948 -0.722982 -2.989527 0
M  V30 69 H 3.066154 0.406005 -4.179444 0
M  V30 END ATOM
M  V30 BEGIN BOND
M  V30 1 1 1 2
M  V30 2 1 2 3
M  V30 3 2 3 4
M  V30 4 1 4 5
M  V30 5 2 5 6
M  V30 6 1 6 7
M  V30 7 1 7 8
M  V30 8 1 8 9
M  V30 9 1 9 10
M  V30 10 2 10 11
M  V30 11 1 11 12
M  V30 12 2 12 13
M  V30 13 1 13 14
M  V30 14 2 14 15
M  V30 15 1 9 16
M  V30 16 1 16 17
M  V30 17 1 17 18
M  V30 18 2 18 19
M  V30 19 1 18 20
M  V30 20 1 20 21
M  V30 21 2 21 22
M  V30 22 1 22 23
M  V30 23 1 23 24
M  V30 24 1 24 25
M  V30 25 1 24 26
M  V30 26 1 24 27
M  V30 27 2 23 28
M  V30 28 1 28 29
M  V30 29 1 29 30
M  V30 30 1 30 31
M  V30 31 1 30 32
M  V30 32 1 30 33
M  V30 33 2 29 34
M  V30 34 1 16 35
M  V30 35 2 35 36
M  V30 36 1 36 37
M  V30 37 2 37 38
M  V30 38 1 38 39
M  V30 39 2 39 40
M  V30 40 1 6 41
M  V30 41 2 41 42
M  V30 42 1 42 3
M  V30 43 1 15 10
M  V30 44 1 34 21
M  V30 45 1 40 35
M  V30 46 1 1 43
M  V30 47 1 1 44
M  V30 48 1 1 45
M  V30 49 1 4 46
M  V30 50 1 5 47
M  V30 51 1 7 48
M  V30 52 1 7 49
M  V30 53 1 8 50
M  V30 54 1 9 51 CFG=3
M  V30 55 1 11 52
M  V30 56 1 12 53
M  V30 57 1 13 54
M  V30 58 1 14 55
M  V30 59 1 15 56
M  V30 60 1 16 57 CFG=1
M  V30 61 1 17 58
M  V30 62 1 20 59
M  V30 63 1 22 60
M  V30 64 1 28 61
M  V30 65 1 34 62
M  V30 66 1 36 63
M  V30 67 1 37 64
M  V30 68 1 38 65
M  V30 69 1 39 66
M  V30 70 1 40 67
M  V30 71 1 41 68
M  V30 72 1 42 69
M  V30 END BOND
M  V30 END CTAB
M  END
>  <catalyst_id>  (1) 
JQTFJWQKOAETNC_VSGBNLITSA_NONE

>  <source_smiles>  (1) 
COc1ccc(CN[C@H](c2ccccc2)[C@H](NC(=S)Nc2cc(C(F)(F)F)cc(C(F)(F)F)c2)c2ccccc2)cc1

>  <axial_configuration>  (1) 
none

>  <inchikey>  (1) 
JQTFJWQKOAETNC-VSGBNLITSA-N

>  <build_source>  (1) 
smiles

>  <rdkit_version>  (1) 
2025.09.6

>  <random_seed>  (1) 
42

>  <generated_at>  (1) 
2026-05-19T12:30:09

$$$$
