catalyst386
     RDKit          3D

  0  0  0  0  0  0  0  0  0  0999 V3000
M  V30 BEGIN CTAB
M  V30 COUNTS 93 98 0 0 0
M  V30 BEGIN ATOM
M  V30 1 C 8.826006 1.788660 -1.824796 0
M  V30 2 C 8.277004 0.707767 -0.868486 0
M  V30 3 C 8.956421 0.924288 0.502692 0
M  V30 4 C 8.707062 -0.685349 -1.376512 0
M  V30 5 C 6.742425 0.789472 -0.821978 0
M  V30 6 C 6.031444 1.025838 0.365465 0
M  V30 7 C 4.631618 1.090778 0.375703 0
M  V30 8 C 3.889856 0.911875 -0.796187 0
M  V30 9 C 2.413996 1.045576 -0.790581 0
M  V30 10 C 1.897263 2.307156 -1.153112 0
M  V30 11 C 0.529921 2.571905 -1.185151 0
M  V30 12 C 0.067905 3.845184 -1.566151 0
M  V30 13 C -1.293458 4.134901 -1.603767 0
M  V30 14 C -2.208445 3.153588 -1.256190 0
M  V30 15 C -1.755377 1.887238 -0.876324 0
M  V30 16 C -0.374926 1.554860 -0.831327 0
M  V30 17 C 0.141097 0.260147 -0.448576 0
M  V30 18 C -0.853890 -0.816671 -0.099276 0
M  V30 19 C -1.370709 -1.674792 -1.123816 0
M  V30 20 C -0.710892 -1.669416 -2.495293 0
M  V30 21 N 0.245465 -2.839233 -2.901954 0 CHG=1
M  V30 22 C 0.554562 -3.765971 -1.734214 0
M  V30 23 C 1.570978 -2.228231 -3.358063 0
M  V30 24 C -0.332492 -3.633798 -4.044032 0
M  V30 25 C -2.484416 -2.503030 -0.833914 0
M  V30 26 C -3.191902 -3.311659 -1.842529 0
M  V30 27 C -3.211316 -4.710470 -1.764825 0
M  V30 28 C -3.894142 -5.482108 -2.714740 0
M  V30 29 C -4.596088 -4.883395 -3.771751 0
M  V30 30 C -5.361324 -5.698080 -4.829935 0
M  V30 31 C -6.862973 -5.345667 -4.769617 0
M  V30 32 C -5.241182 -7.227948 -4.647201 0
M  V30 33 C -4.816428 -5.363966 -6.235716 0
M  V30 34 C -4.598717 -3.477145 -3.824459 0
M  V30 35 C -3.918286 -2.706536 -2.874375 0
M  V30 36 C -2.984836 -2.533597 0.481813 0
M  V30 37 C -2.434563 -1.767171 1.514847 0
M  V30 38 C -2.965639 -1.848436 2.815085 0
M  V30 39 C -2.442783 -1.081724 3.854458 0
M  V30 40 C -1.380998 -0.225047 3.605384 0
M  V30 41 C -0.850529 -0.134976 2.316812 0
M  V30 42 C -1.360698 -0.896325 1.237779 0
M  V30 43 C 1.551894 -0.029504 -0.411319 0
M  V30 44 O 2.005531 -1.177516 -0.064579 0 CHG=-1
M  V30 45 C 4.588322 0.678694 -1.985767 0
M  V30 46 C 5.987215 0.616844 -1.998077 0
M  V30 47 H 8.481350 1.644999 -2.854705 0
M  V30 48 H 8.511833 2.790718 -1.509396 0
M  V30 49 H 9.921980 1.774998 -1.849327 0
M  V30 50 H 8.646245 0.166049 1.231148 0
M  V30 51 H 10.047902 0.860511 0.417254 0
M  V30 52 H 8.722988 1.911998 0.917105 0
M  V30 53 H 8.307764 -1.479792 -0.734842 0
M  V30 54 H 8.358244 -0.880323 -2.396564 0
M  V30 55 H 9.799017 -0.782470 -1.387262 0
M  V30 56 H 6.536160 1.157276 1.317557 0
M  V30 57 H 4.105877 1.257792 1.313683 0
M  V30 58 H 2.603847 3.094449 -1.412037 0
M  V30 59 H 0.777252 4.626510 -1.831131 0
M  V30 60 H -1.632663 5.125580 -1.891865 0
M  V30 61 H -3.273104 3.368984 -1.264548 0
M  V30 62 H -2.505116 1.153056 -0.589933 0
M  V30 63 H -1.487934 -1.627000 -3.266489 0
M  V30 64 H -0.159863 -0.741802 -2.674279 0
M  V30 65 H 0.889775 -3.201053 -0.872725 0
M  V30 66 H 1.337575 -4.464087 -2.048403 0
M  V30 67 H -0.343173 -4.335831 -1.488816 0
M  V30 68 H 2.031548 -1.679789 -2.545032 0
M  V30 69 H 2.232827 -3.038367 -3.680868 0
M  V30 70 H 1.368335 -1.560734 -4.201780 0
M  V30 71 H -0.521851 -2.958311 -4.883960 0
M  V30 72 H 0.389828 -4.401849 -4.338468 0
M  V30 73 H -1.257739 -4.108028 -3.721659 0
M  V30 74 H -2.691950 -5.217885 -0.952787 0
M  V30 75 H -3.867199 -6.561669 -2.590609 0
M  V30 76 H -7.050387 -4.290750 -4.998099 0
M  V30 77 H -7.437113 -5.937242 -5.492299 0
M  V30 78 H -7.275120 -5.544544 -3.773199 0
M  V30 79 H -5.792070 -7.763719 -5.429605 0
M  V30 80 H -5.653068 -7.553417 -3.684845 0
M  V30 81 H -4.197799 -7.559807 -4.702242 0
M  V30 82 H -5.319448 -5.959587 -7.006512 0
M  V30 83 H -4.964427 -4.310873 -6.498700 0
M  V30 84 H -3.741788 -5.571755 -6.301718 0
M  V30 85 H -5.151646 -2.954280 -4.602853 0
M  V30 86 H -3.978405 -1.621017 -2.937967 0
M  V30 87 H -3.841510 -3.171128 0.702817 0
M  V30 88 H -3.796278 -2.516715 3.030325 0
M  V30 89 H -2.857838 -1.158989 4.855063 0
M  V30 90 H -0.950477 0.369333 4.406317 0
M  V30 91 H 0.001360 0.526481 2.158362 0
M  V30 92 H 4.036360 0.542180 -2.910599 0
M  V30 93 H 6.479402 0.427369 -2.948161 0
M  V30 END ATOM
M  V30 BEGIN BOND
M  V30 1 1 1 2
M  V30 2 1 2 3
M  V30 3 1 2 4
M  V30 4 1 2 5
M  V30 5 2 5 6
M  V30 6 1 6 7
M  V30 7 2 7 8
M  V30 8 1 8 9
M  V30 9 2 9 10
M  V30 10 1 10 11
M  V30 11 2 11 12
M  V30 12 1 12 13
M  V30 13 2 13 14
M  V30 14 1 14 15
M  V30 15 2 15 16
M  V30 16 1 16 17
M  V30 17 1 17 18
M  V30 18 2 18 19
M  V30 19 1 19 20
M  V30 20 1 20 21
M  V30 21 1 21 22
M  V30 22 1 21 23
M  V30 23 1 21 24
M  V30 24 1 19 25
M  V30 25 1 25 26
M  V30 26 2 26 27
M  V30 27 1 27 28
M  V30 28 2 28 29
M  V30 29 1 29 30
M  V30 30 1 30 31
M  V30 31 1 30 32
M  V30 32 1 30 33
M  V30 33 1 29 34
M  V30 34 2 34 35
M  V30 35 2 25 36
M  V30 36 1 36 37
M  V30 37 2 37 38
M  V30 38 1 38 39
M  V30 39 2 39 40
M  V30 40 1 40 41
M  V30 41 2 41 42
M  V30 42 2 17 43
M  V30 43 1 43 44
M  V30 44 1 8 45
M  V30 45 2 45 46
M  V30 46 1 46 5
M  V30 47 1 43 9
M  V30 48 1 16 11
M  V30 49 1 42 18
M  V30 50 1 35 26
M  V30 51 1 42 37
M  V30 52 1 1 47
M  V30 53 1 1 48
M  V30 54 1 1 49
M  V30 55 1 3 50
M  V30 56 1 3 51
M  V30 57 1 3 52
M  V30 58 1 4 53
M  V30 59 1 4 54
M  V30 60 1 4 55
M  V30 61 1 6 56
M  V30 62 1 7 57
M  V30 63 1 10 58
M  V30 64 1 12 59
M  V30 65 1 13 60
M  V30 66 1 14 61
M  V30 67 1 15 62
M  V30 68 1 20 63
M  V30 69 1 20 64
M  V30 70 1 22 65
M  V30 71 1 22 66
M  V30 72 1 22 67
M  V30 73 1 23 68
M  V30 74 1 23 69
M  V30 75 1 23 70
M  V30 76 1 24 71
M  V30 77 1 24 72
M  V30 78 1 24 73
M  V30 79 1 27 74
M  V30 80 1 28 75
M  V30 81 1 31 76
M  V30 82 1 31 77
M  V30 83 1 31 78
M  V30 84 1 32 79
M  V30 85 1 32 80
M  V30 86 1 32 81
M  V30 87 1 33 82
M  V30 88 1 33 83
M  V30 89 1 33 84
M  V30 90 1 34 85
M  V30 91 1 35 86
M  V30 92 1 36 87
M  V30 93 1 38 88
M  V30 94 1 39 89
M  V30 95 1 40 90
M  V30 96 1 41 91
M  V30 97 1 45 92
M  V30 98 1 46 93
M  V30 END BOND
M  V30 END CTAB
M  END
>  <catalyst_id>  (1) 
WUMFGIDFSVYLBC_UHFFFAOYSA_R

>  <source_smiles>  (1) 
CC(C)(C)c1ccc(-c2cc3ccccc3c(-c3c(C[N+](C)(C)C)c(-c4ccc(C(C)(C)C)cc4)cc4ccccc34)c2[O-])cc1

>  <axial_configuration>  (1) 
R

>  <inchikey>  (1) 
WUMFGIDFSVYLBC-UHFFFAOYSA-N

>  <build_source>  (1) 
smiles+axial_free

>  <final_biaryl_angle_deg>  (1) 
95.00

>  <rdkit_version>  (1) 
2025.09.6

>  <random_seed>  (1) 
42

>  <generated_at>  (1) 
2026-05-19T12:34:14

$$$$
