catalyst393
     RDKit          3D

  0  0  0  0  0  0  0  0  0  0999 V3000
M  V30 BEGIN CTAB
M  V30 COUNTS 52 54 0 0 0
M  V30 BEGIN ATOM
M  V30 1 C -0.763931 -1.604644 2.836966 0
M  V30 2 N -1.250300 -0.236397 2.676392 0
M  V30 3 C -2.381194 0.009965 3.571616 0
M  V30 4 C -1.538856 0.175574 1.265580 0 CFG=2
M  V30 5 C -2.651914 -0.616944 0.575615 0
M  V30 6 C -2.446964 -1.900984 0.044485 0
M  V30 7 C -3.485331 -2.589088 -0.587687 0
M  V30 8 C -4.744357 -2.005554 -0.699954 0
M  V30 9 C -4.967667 -0.734118 -0.179331 0
M  V30 10 C -3.930960 -0.045659 0.453597 0
M  V30 11 C -0.219311 0.291749 0.393074 0 CFG=2
M  V30 12 N 0.897005 0.798230 1.221092 0
M  V30 13 C 2.239854 0.641003 0.996634 0
M  V30 14 S 3.229145 0.722615 2.338728 0
M  V30 15 N 2.587041 0.472317 -0.319226 0
M  V30 16 C 3.779781 0.032011 -0.929512 0
M  V30 17 C 3.945935 0.347511 -2.287671 0
M  V30 18 C 5.083779 -0.067848 -2.983537 0
M  V30 19 C 6.050845 -0.813892 -2.325289 0
M  V30 20 F 7.141001 -1.217486 -2.990157 0
M  V30 21 C 5.894621 -1.157512 -0.989475 0
M  V30 22 C 4.754686 -0.740719 -0.293521 0
M  V30 23 C -0.441810 1.174007 -0.832178 0
M  V30 24 C -0.659963 0.589627 -2.089881 0
M  V30 25 C -0.856394 1.386191 -3.218858 0
M  V30 26 C -0.838325 2.774544 -3.105849 0
M  V30 27 C -0.627296 3.368964 -1.863886 0
M  V30 28 C -0.432982 2.575014 -0.733038 0
M  V30 29 H -1.541800 -2.354179 2.658997 0
M  V30 30 H 0.082969 -1.816891 2.177393 0
M  V30 31 H -0.395414 -1.750367 3.859089 0
M  V30 32 H -2.712655 1.052102 3.505527 0
M  V30 33 H -3.235794 -0.641980 3.361041 0
M  V30 34 H -2.082549 -0.152336 4.613602 0
M  V30 35 H -1.897067 1.212695 1.352684 0
M  V30 36 H -1.477860 -2.387598 0.119207 0
M  V30 37 H -3.311238 -3.583374 -0.991301 0
M  V30 38 H -5.551563 -2.541610 -1.192059 0
M  V30 39 H -5.949395 -0.275736 -0.266575 0
M  V30 40 H -4.128863 0.948549 0.849530 0
M  V30 41 H 0.101673 -0.702593 0.058680 0
M  V30 42 H 0.666592 0.814022 2.213070 0
M  V30 43 H 1.937006 0.919182 -0.953452 0
M  V30 44 H 3.197180 0.932724 -2.816892 0
M  V30 45 H 5.218837 0.185876 -4.029747 0
M  V30 46 H 6.653890 -1.754909 -0.494853 0
M  V30 47 H 4.646636 -1.064897 0.735250 0
M  V30 48 H -0.684075 -0.492746 -2.200217 0
M  V30 49 H -1.029742 0.922581 -4.186862 0
M  V30 50 H -0.993806 3.394086 -3.985408 0
M  V30 51 H -0.614570 4.452405 -1.774534 0
M  V30 52 H -0.264533 3.056518 0.228897 0
M  V30 END ATOM
M  V30 BEGIN BOND
M  V30 1 1 1 2
M  V30 2 1 2 3
M  V30 3 1 2 4
M  V30 4 1 4 5
M  V30 5 2 5 6
M  V30 6 1 6 7
M  V30 7 2 7 8
M  V30 8 1 8 9
M  V30 9 2 9 10
M  V30 10 1 4 11
M  V30 11 1 11 12
M  V30 12 1 12 13
M  V30 13 2 13 14
M  V30 14 1 13 15
M  V30 15 1 15 16
M  V30 16 2 16 17
M  V30 17 1 17 18
M  V30 18 2 18 19
M  V30 19 1 19 20
M  V30 20 1 19 21
M  V30 21 2 21 22
M  V30 22 1 11 23
M  V30 23 2 23 24
M  V30 24 1 24 25
M  V30 25 2 25 26
M  V30 26 1 26 27
M  V30 27 2 27 28
M  V30 28 1 10 5
M  V30 29 1 22 16
M  V30 30 1 28 23
M  V30 31 1 1 29
M  V30 32 1 1 30
M  V30 33 1 1 31
M  V30 34 1 3 32
M  V30 35 1 3 33
M  V30 36 1 3 34
M  V30 37 1 4 35 CFG=1
M  V30 38 1 6 36
M  V30 39 1 7 37
M  V30 40 1 8 38
M  V30 41 1 9 39
M  V30 42 1 10 40
M  V30 43 1 11 41 CFG=3
M  V30 44 1 12 42
M  V30 45 1 15 43
M  V30 46 1 17 44
M  V30 47 1 18 45
M  V30 48 1 21 46
M  V30 49 1 22 47
M  V30 50 1 24 48
M  V30 51 1 25 49
M  V30 52 1 26 50
M  V30 53 1 27 51
M  V30 54 1 28 52
M  V30 END BOND
M  V30 END CTAB
M  END
>  <catalyst_id>  (1) 
WZBCFQJOVPPBHK_FGZHOGPDSA_NONE

>  <source_smiles>  (1) 
CN(C)[C@H](c1ccccc1)[C@H](NC(=S)Nc1ccc(F)cc1)c1ccccc1

>  <axial_configuration>  (1) 
none

>  <inchikey>  (1) 
WZBCFQJOVPPBHK-FGZHOGPDSA-N

>  <build_source>  (1) 
smiles

>  <rdkit_version>  (1) 
2025.09.6

>  <random_seed>  (1) 
42

>  <generated_at>  (1) 
2026-05-19T12:30:07

$$$$
