catalyst404
     RDKit          3D

  0  0  0  0  0  0  0  0  0  0999 V3000
M  V30 BEGIN CTAB
M  V30 COUNTS 19 20 0 0 0
M  V30 BEGIN ATOM
M  V30 1 C -1.738855 0.515381 0.725705 0
M  V30 2 C -1.939228 -0.009150 -0.679180 0
M  V30 3 N -0.567109 -0.152977 -1.165258 0
M  V30 4 C 0.201457 -0.719299 -0.038133 0 CFG=1
M  V30 5 C 1.611047 -0.264908 -0.061778 0
M  V30 6 N 2.671055 -0.828967 0.478986 0
M  V30 7 N 3.731896 -0.004264 0.182987 0
M  V30 8 N 3.337069 1.045245 -0.525501 0
M  V30 9 N 2.017429 0.881953 -0.679323 0
M  V30 10 C -0.532305 -0.263209 1.227437 0
M  V30 11 H -2.619012 0.369049 1.358603 0
M  V30 12 H -1.507811 1.587623 0.704457 0
M  V30 13 H -2.447273 -0.980558 -0.667731 0
M  V30 14 H -2.515520 0.682264 -1.299915 0
M  V30 15 H -0.542880 -0.802158 -1.953352 0
M  V30 16 H 0.174846 -1.814801 -0.096715 0
M  V30 17 H 1.465768 1.548718 -1.205118 0
M  V30 18 H -0.873554 -1.140792 1.790362 0
M  V30 19 H 0.072979 0.350850 1.903467 0
M  V30 END ATOM
M  V30 BEGIN BOND
M  V30 1 1 1 2
M  V30 2 1 2 3
M  V30 3 1 3 4
M  V30 4 1 4 5
M  V30 5 2 5 6
M  V30 6 1 6 7
M  V30 7 2 7 8
M  V30 8 1 8 9
M  V30 9 1 4 10
M  V30 10 1 10 1
M  V30 11 1 9 5
M  V30 12 1 1 11
M  V30 13 1 1 12
M  V30 14 1 2 13
M  V30 15 1 2 14
M  V30 16 1 3 15
M  V30 17 1 4 16 CFG=3
M  V30 18 1 9 17
M  V30 19 1 10 18
M  V30 20 1 10 19
M  V30 END BOND
M  V30 END CTAB
M  END
>  <catalyst_id>  (1) 
XUHYQIQIENDJER_SCSAIBSYSA_NONE

>  <source_smiles>  (1) 
C1CN[C@@H](c2nnn[nH]2)C1

>  <axial_configuration>  (1) 
none

>  <inchikey>  (1) 
XUHYQIQIENDJER-SCSAIBSYSA-N

>  <build_source>  (1) 
smiles

>  <rdkit_version>  (1) 
2025.09.6

>  <random_seed>  (1) 
42

>  <generated_at>  (1) 
2026-05-19T12:29:57

$$$$
