catalyst362
     RDKit          3D

  0  0  0  0  0  0  0  0  0  0999 V3000
M  V30 BEGIN CTAB
M  V30 COUNTS 40 42 0 0 0
M  V30 BEGIN ATOM
M  V30 1 N 1.994196 2.405619 1.819433 0
M  V30 2 C 1.469453 1.372417 0.895851 0 CFG=2
M  V30 3 C 0.056711 0.913200 1.374707 0
M  V30 4 O -0.303556 1.131541 2.538595 0
M  V30 5 N -0.798003 0.292182 0.453750 0
M  V30 6 C -0.308748 -0.304393 -0.798277 0
M  V30 7 C -1.414872 -0.584178 -1.830269 0 CFG=2
M  V30 8 C -2.003767 0.711853 -2.421259 0
M  V30 9 N -2.703599 1.545992 -1.437617 0
M  V30 10 C -3.695399 0.768313 -0.683756 0
M  V30 11 C -3.128495 -0.525439 -0.067293 0 CFG=1
M  V30 12 C -2.531021 -1.392367 -1.172975 0
M  V30 13 C -2.053780 -0.244069 0.995287 0
M  V30 14 C 2.466178 0.231683 0.788390 0
M  V30 15 C 2.508523 -0.806876 1.733455 0
M  V30 16 C 3.436568 -1.842929 1.611034 0
M  V30 17 C 4.342796 -1.848267 0.553029 0
M  V30 18 C 4.329344 -0.813198 -0.378978 0
M  V30 19 C 3.401964 0.223280 -0.259110 0
M  V30 20 H 1.254363 3.096324 1.956535 0
M  V30 21 H 2.075774 1.963557 2.738091 0
M  V30 22 H 1.342294 1.864462 -0.074818 0
M  V30 23 H 0.447473 0.338180 -1.254761 0
M  V30 24 H 0.182950 -1.246339 -0.525709 0
M  V30 25 H -0.981286 -1.168637 -2.651019 0
M  V30 26 H -1.204553 1.307149 -2.877835 0
M  V30 27 H -2.700293 0.461648 -3.231280 0
M  V30 28 H -2.013185 1.892266 -0.766498 0
M  V30 29 H -4.110485 1.404625 0.106414 0
M  V30 30 H -4.531477 0.521763 -1.350110 0
M  V30 31 H -3.953844 -1.067320 0.410493 0
M  V30 32 H -3.298624 -1.657101 -1.910270 0
M  V30 33 H -2.141053 -2.331690 -0.762816 0
M  V30 34 H -2.454107 0.442697 1.750279 0
M  V30 35 H -1.796905 -1.176107 1.515175 0
M  V30 36 H 1.822590 -0.816347 2.578777 0
M  V30 37 H 3.457980 -2.641246 2.348544 0
M  V30 38 H 5.069416 -2.651495 0.463512 0
M  V30 39 H 5.049076 -0.806074 -1.193438 0
M  V30 40 H 3.419403 1.035321 -0.983266 0
M  V30 END ATOM
M  V30 BEGIN BOND
M  V30 1 1 1 2
M  V30 2 1 2 3
M  V30 3 2 3 4
M  V30 4 1 3 5
M  V30 5 1 5 6
M  V30 6 1 6 7
M  V30 7 1 7 8
M  V30 8 1 8 9
M  V30 9 1 9 10
M  V30 10 1 10 11
M  V30 11 1 11 12
M  V30 12 1 11 13
M  V30 13 1 2 14
M  V30 14 2 14 15
M  V30 15 1 15 16
M  V30 16 2 16 17
M  V30 17 1 17 18
M  V30 18 2 18 19
M  V30 19 1 13 5
M  V30 20 1 19 14
M  V30 21 1 12 7
M  V30 22 1 1 20
M  V30 23 1 1 21
M  V30 24 1 2 22 CFG=3
M  V30 25 1 6 23
M  V30 26 1 6 24
M  V30 27 1 7 25 CFG=3
M  V30 28 1 8 26
M  V30 29 1 8 27
M  V30 30 1 9 28
M  V30 31 1 10 29
M  V30 32 1 10 30
M  V30 33 1 11 31 CFG=1
M  V30 34 1 12 32
M  V30 35 1 12 33
M  V30 36 1 13 34
M  V30 37 1 13 35
M  V30 38 1 15 36
M  V30 39 1 16 37
M  V30 40 1 17 38
M  V30 41 1 18 39
M  V30 42 1 19 40
M  V30 END BOND
M  V30 END CTAB
M  END
>  <catalyst_id>  (1) 
VIZFESIGTKEJMQ_YIZWMMSDSA_NONE

>  <source_smiles>  (1) 
N[C@H](C(=O)N1CC2CNCC(C2)C1)c1ccccc1

>  <axial_configuration>  (1) 
none

>  <inchikey>  (1) 
VIZFESIGTKEJMQ-YIZWMMSDSA-N

>  <build_source>  (1) 
smiles

>  <rdkit_version>  (1) 
2025.09.6

>  <random_seed>  (1) 
42

>  <generated_at>  (1) 
2026-05-19T12:37:17

$$$$
