catalyst433
     RDKit          3D

  0  0  0  0  0  0  0  0  0  0999 V3000
M  V30 BEGIN CTAB
M  V30 COUNTS 176 182 0 0 0
M  V30 BEGIN ATOM
M  V30 1 C 7.871065 -4.588050 1.249595 0
M  V30 2 C 6.548322 -4.316046 0.540791 0
M  V30 3 C 6.462580 -2.903180 -0.084279 0
M  V30 4 C 6.914019 -2.904046 -1.571618 0
M  V30 5 C 8.380586 -3.244198 -1.791524 0
M  V30 6 N 5.117497 -2.302697 0.013445 0
M  V30 7 C 3.981340 -2.999300 -0.607143 0
M  V30 8 C 3.009259 -3.723882 0.309930 0
M  V30 9 C 1.969453 -3.011989 0.931334 0
M  V30 10 C 1.112091 -3.601332 1.862300 0
M  V30 11 C 1.242310 -4.968868 2.111290 0
M  V30 12 C 2.225658 -5.730383 1.452851 0
M  V30 13 C 2.370469 -7.207393 1.726332 0
M  V30 14 F 2.511798 -7.939939 0.586976 0
M  V30 15 F 1.304310 -7.743253 2.383586 0
M  V30 16 F 3.461351 -7.488066 2.490691 0
M  V30 17 C 3.112006 -5.094086 0.564692 0
M  V30 18 N 0.196928 -2.858874 2.662664 0
M  V30 19 C 0.126711 -1.494880 2.722367 0
M  V30 20 S 0.218863 -0.726490 4.198617 0
M  V30 21 N 0.025774 -0.768234 1.574600 0
M  V30 22 C -0.777517 -1.079839 0.457598 0
M  V30 23 C -1.941474 -1.841100 0.569323 0
M  V30 24 C -2.808247 -1.989785 -0.526982 0
M  V30 25 C -2.397945 -1.506162 -1.774156 0
M  V30 26 C -1.214462 -0.769369 -1.911781 0
M  V30 27 C -0.810991 -0.206973 -3.249545 0
M  V30 28 F 0.541329 -0.195888 -3.428425 0
M  V30 29 F -1.321938 -0.893173 -4.307435 0
M  V30 30 F -1.210785 1.083958 -3.406510 0
M  V30 31 C -0.440707 -0.516106 -0.771003 0
M  V30 32 C -4.164090 -2.639688 -0.321272 0
M  V30 33 N -5.307075 -1.995401 -0.997635 0
M  V30 34 C -5.779514 -2.757785 -2.176050 0
M  V30 35 C -6.828613 -3.775170 -1.640060 0
M  V30 36 C -7.219370 -4.864777 -2.631497 0
M  V30 37 C -6.300088 -2.048936 -3.453806 0
M  V30 38 C -5.298848 -1.157820 -4.173501 0
M  V30 39 C -5.566882 -0.546378 -0.764801 0 CFG=1
M  V30 40 C -7.032029 -0.141349 -1.104842 0
M  V30 41 C -7.693070 0.823727 -0.133017 0
M  V30 42 C -7.665292 0.258085 1.276685 0
M  V30 43 C -6.318999 -0.370136 1.636317 0
M  V30 44 C -5.152333 0.028147 0.692564 0 CFG=2
M  V30 45 N -4.757263 1.486478 0.751713 0
M  V30 46 C -4.410478 2.021789 2.121271 0
M  V30 47 C -5.680271 2.577655 2.814569 0
M  V30 48 C -5.467515 3.923909 3.503844 0
M  V30 49 C -3.560473 1.074218 3.009185 0
M  V30 50 C -3.117354 1.685832 4.331039 0
M  V30 51 C -3.631658 1.801183 -0.175584 0
M  V30 52 C -3.507628 3.260541 -0.608644 0
M  V30 53 C -2.371234 3.652907 -1.349001 0
M  V30 54 C -2.212680 4.967838 -1.793299 0
M  V30 55 C -3.195609 5.911340 -1.467278 0
M  V30 56 C -4.349030 5.546711 -0.756966 0
M  V30 57 C -5.429768 6.559678 -0.475166 0
M  V30 58 F -6.368070 6.603094 -1.460965 0
M  V30 59 F -4.950375 7.830796 -0.362097 0
M  V30 60 F -6.108914 6.316184 0.680319 0
M  V30 61 C -4.506678 4.212079 -0.363222 0
M  V30 62 N -1.171780 5.420909 -2.644371 0
M  V30 63 C -0.300294 4.689155 -3.373856 0
M  V30 64 S -0.077872 5.097498 -4.983285 0
M  V30 65 N 0.399000 3.645970 -2.880963 0
M  V30 66 C 1.093438 3.531091 -1.656975 0
M  V30 67 C 1.870181 2.377668 -1.490293 0
M  V30 68 C 2.674958 2.182385 -0.357894 0
M  V30 69 C 2.681103 3.176551 0.627711 0
M  V30 70 C 1.895683 4.334837 0.491191 0
M  V30 71 C 1.929165 5.404063 1.555502 0
M  V30 72 F 0.790393 6.150810 1.601265 0
M  V30 73 F 2.948786 6.286915 1.376524 0
M  V30 74 F 2.087083 4.896742 2.810177 0
M  V30 75 C 1.109661 4.505814 -0.663257 0
M  V30 76 C 3.437594 0.883723 -0.165426 0
M  V30 77 N 4.904802 0.997400 -0.052540 0
M  V30 78 C 5.628332 0.867019 -1.352926 0
M  V30 79 C 7.167375 1.118339 -1.266287 0
M  V30 80 C 7.618255 2.306044 -0.421917 0
M  V30 81 C 5.063749 1.655160 -2.568591 0
M  V30 82 C 5.141743 3.172097 -2.499950 0
M  V30 83 C 5.456294 0.063008 1.000295 0 CFG=1
M  V30 84 C 5.452660 0.826091 2.356752 0
M  V30 85 C 4.429882 0.305933 3.353833 0
M  V30 86 C 4.668072 -1.162840 3.687415 0
M  V30 87 C 5.225310 -1.984599 2.520821 0
M  V30 88 C 4.839444 -1.396733 1.147629 0 CFG=2
M  V30 89 H 8.042593 -3.857943 2.047359 0
M  V30 90 H 8.725064 -4.555916 0.571108 0
M  V30 91 H 7.849881 -5.582922 1.706888 0
M  V30 92 H 5.771946 -4.453517 1.297181 0
M  V30 93 H 6.373181 -5.086285 -0.219445 0
M  V30 94 H 7.166341 -2.245793 0.440876 0
M  V30 95 H 6.748753 -1.911251 -2.000655 0
M  V30 96 H 6.312878 -3.600926 -2.166018 0
M  V30 97 H 9.029104 -2.649030 -1.141810 0
M  V30 98 H 8.573400 -4.305818 -1.616632 0
M  V30 99 H 8.659960 -3.033596 -2.829285 0
M  V30 100 H 3.408817 -2.257372 -1.179907 0
M  V30 101 H 4.316111 -3.710813 -1.370589 0
M  V30 102 H 1.890095 -1.956726 0.705295 0
M  V30 103 H 0.585538 -5.456227 2.830147 0
M  V30 104 H 3.891323 -5.678120 0.076462 0
M  V30 105 H -0.010026 -3.307943 3.549731 0
M  V30 106 H 0.303161 0.205985 1.651032 0
M  V30 107 H -2.241134 -2.235117 1.537779 0
M  V30 108 H -3.027567 -1.669431 -2.644195 0
M  V30 109 H 0.458825 0.083297 -0.856580 0
M  V30 110 H -4.061969 -3.693830 -0.612473 0
M  V30 111 H -4.395216 -2.685768 0.750059 0
M  V30 112 H -4.931551 -3.353347 -2.544224 0
M  V30 113 H -7.737305 -3.253085 -1.318339 0
M  V30 114 H -6.431381 -4.280120 -0.749640 0
M  V30 115 H -7.823862 -5.626371 -2.127557 0
M  V30 116 H -7.821300 -4.467260 -3.453206 0
M  V30 117 H -6.334611 -5.356895 -3.047026 0
M  V30 118 H -7.229316 -1.505534 -3.270716 0
M  V30 119 H -6.573632 -2.819393 -4.185278 0
M  V30 120 H -5.747630 -0.768706 -5.093626 0
M  V30 121 H -4.409082 -1.725452 -4.461199 0
M  V30 122 H -4.990203 -0.298042 -3.579330 0
M  V30 123 H -4.948966 -0.052731 -1.507109 0
M  V30 124 H -7.058550 0.315354 -2.101153 0
M  V30 125 H -7.675707 -1.026248 -1.140304 0
M  V30 126 H -7.199523 1.800357 -0.173493 0
M  V30 127 H -8.732476 0.999984 -0.434855 0
M  V30 128 H -8.445282 -0.507404 1.379270 0
M  V30 129 H -7.933301 1.042489 1.991578 0
M  V30 130 H -6.100116 -0.176004 2.687846 0
M  V30 131 H -6.435195 -1.461855 1.590176 0
M  V30 132 H -4.273360 -0.510198 1.040263 0
M  V30 133 H -3.770528 2.901295 1.973579 0
M  V30 134 H -6.465520 2.750641 2.070426 0
M  V30 135 H -6.078005 1.862280 3.541317 0
M  V30 136 H -5.129074 4.680084 2.788793 0
M  V30 137 H -4.735594 3.869306 4.311429 0
M  V30 138 H -6.411000 4.273763 3.935224 0
M  V30 139 H -2.658068 0.783689 2.459710 0
M  V30 140 H -4.092963 0.148784 3.241852 0
M  V30 141 H -2.586435 2.629571 4.173813 0
M  V30 142 H -3.968525 1.858760 4.995321 0
M  V30 143 H -2.442105 1.002732 4.853678 0
M  V30 144 H -2.681303 1.481543 0.268938 0
M  V30 145 H -3.718821 1.270248 -1.121393 0
M  V30 146 H -1.638851 2.893068 -1.598831 0
M  V30 147 H -3.090260 6.944936 -1.796810 0
M  V30 148 H -5.422551 3.918009 0.148100 0
M  V30 149 H -1.389104 6.299924 -3.105475 0
M  V30 150 H 0.765719 3.054029 -3.620300 0
M  V30 151 H 1.858663 1.613576 -2.264887 0
M  V30 152 H 3.299359 3.047351 1.516003 0
M  V30 153 H 0.539850 5.424343 -0.772156 0
M  V30 154 H 3.157410 0.146002 -0.927649 0
M  V30 155 H 2.998571 0.507911 0.763706 0
M  V30 156 H 5.511468 -0.177254 -1.662684 0
M  V30 157 H 7.571579 1.244634 -2.278955 0
M  V30 158 H 7.666327 0.220334 -0.882962 0
M  V30 159 H 8.702668 2.429763 -0.513948 0
M  V30 160 H 7.402229 2.156139 0.638425 0
M  V30 161 H 7.153569 3.243008 -0.730370 0
M  V30 162 H 5.604691 1.336382 -3.470586 0
M  V30 163 H 4.034494 1.346578 -2.763838 0
M  V30 164 H 4.487981 3.613617 -3.259599 0
M  V30 165 H 6.156794 3.518787 -2.715922 0
M  V30 166 H 4.843752 3.565532 -1.525596 0
M  V30 167 H 6.521824 -0.086120 0.809008 0
M  V30 168 H 6.451521 0.736523 2.806711 0
M  V30 169 H 5.307280 1.902890 2.207835 0
M  V30 170 H 3.419066 0.435144 2.953251 0
M  V30 171 H 4.468890 0.898240 4.275072 0
M  V30 172 H 5.363499 -1.242333 4.532279 0
M  V30 173 H 3.724371 -1.602949 4.032493 0
M  V30 174 H 4.853899 -3.008101 2.633005 0
M  V30 175 H 6.316859 -2.029058 2.615610 0
M  V30 176 H 3.766196 -1.254266 1.204124 0
M  V30 END ATOM
M  V30 BEGIN BOND
M  V30 1 1 1 2
M  V30 2 1 2 3
M  V30 3 1 3 4
M  V30 4 1 4 5
M  V30 5 1 3 6
M  V30 6 1 6 7
M  V30 7 1 7 8
M  V30 8 1 8 9
M  V30 9 2 9 10
M  V30 10 1 10 11
M  V30 11 2 11 12
M  V30 12 1 12 13
M  V30 13 1 13 14
M  V30 14 1 13 15
M  V30 15 1 13 16
M  V30 16 1 12 17
M  V30 17 1 10 18
M  V30 18 1 18 19
M  V30 19 2 19 20
M  V30 20 1 19 21
M  V30 21 1 21 22
M  V30 22 1 22 23
M  V30 23 2 23 24
M  V30 24 1 24 25
M  V30 25 2 25 26
M  V30 26 1 26 27
M  V30 27 1 27 28
M  V30 28 1 27 29
M  V30 29 1 27 30
M  V30 30 1 26 31
M  V30 31 1 24 32
M  V30 32 1 32 33
M  V30 33 1 33 34
M  V30 34 1 34 35
M  V30 35 1 35 36
M  V30 36 1 34 37
M  V30 37 1 37 38
M  V30 38 1 33 39
M  V30 39 1 39 40
M  V30 40 1 40 41
M  V30 41 1 41 42
M  V30 42 1 42 43
M  V30 43 1 43 44
M  V30 44 1 44 45
M  V30 45 1 45 46
M  V30 46 1 46 47
M  V30 47 1 47 48
M  V30 48 1 46 49
M  V30 49 1 49 50
M  V30 50 1 45 51
M  V30 51 1 51 52
M  V30 52 1 52 53
M  V30 53 2 53 54
M  V30 54 1 54 55
M  V30 55 2 55 56
M  V30 56 1 56 57
M  V30 57 1 57 58
M  V30 58 1 57 59
M  V30 59 1 57 60
M  V30 60 1 56 61
M  V30 61 1 54 62
M  V30 62 1 62 63
M  V30 63 2 63 64
M  V30 64 1 63 65
M  V30 65 1 65 66
M  V30 66 1 66 67
M  V30 67 2 67 68
M  V30 68 1 68 69
M  V30 69 2 69 70
M  V30 70 1 70 71
M  V30 71 1 71 72
M  V30 72 1 71 73
M  V30 73 1 71 74
M  V30 74 1 70 75
M  V30 75 1 68 76
M  V30 76 1 76 77
M  V30 77 1 77 78
M  V30 78 1 78 79
M  V30 79 1 79 80
M  V30 80 1 78 81
M  V30 81 1 81 82
M  V30 82 1 77 83
M  V30 83 1 83 84
M  V30 84 1 84 85
M  V30 85 1 85 86
M  V30 86 1 86 87
M  V30 87 1 87 88
M  V30 88 1 88 6
M  V30 89 2 17 8
M  V30 90 2 31 22
M  V30 91 1 44 39
M  V30 92 2 61 52
M  V30 93 2 75 66
M  V30 94 1 88 83
M  V30 95 1 1 89
M  V30 96 1 1 90
M  V30 97 1 1 91
M  V30 98 1 2 92
M  V30 99 1 2 93
M  V30 100 1 3 94
M  V30 101 1 4 95
M  V30 102 1 4 96
M  V30 103 1 5 97
M  V30 104 1 5 98
M  V30 105 1 5 99
M  V30 106 1 7 100
M  V30 107 1 7 101
M  V30 108 1 9 102
M  V30 109 1 11 103
M  V30 110 1 17 104
M  V30 111 1 18 105
M  V30 112 1 21 106
M  V30 113 1 23 107
M  V30 114 1 25 108
M  V30 115 1 31 109
M  V30 116 1 32 110
M  V30 117 1 32 111
M  V30 118 1 34 112
M  V30 119 1 35 113
M  V30 120 1 35 114
M  V30 121 1 36 115
M  V30 122 1 36 116
M  V30 123 1 36 117
M  V30 124 1 37 118
M  V30 125 1 37 119
M  V30 126 1 38 120
M  V30 127 1 38 121
M  V30 128 1 38 122
M  V30 129 1 39 123 CFG=3
M  V30 130 1 40 124
M  V30 131 1 40 125
M  V30 132 1 41 126
M  V30 133 1 41 127
M  V30 134 1 42 128
M  V30 135 1 42 129
M  V30 136 1 43 130
M  V30 137 1 43 131
M  V30 138 1 44 132 CFG=1
M  V30 139 1 46 133
M  V30 140 1 47 134
M  V30 141 1 47 135
M  V30 142 1 48 136
M  V30 143 1 48 137
M  V30 144 1 48 138
M  V30 145 1 49 139
M  V30 146 1 49 140
M  V30 147 1 50 141
M  V30 148 1 50 142
M  V30 149 1 50 143
M  V30 150 1 51 144
M  V30 151 1 51 145
M  V30 152 1 53 146
M  V30 153 1 55 147
M  V30 154 1 61 148
M  V30 155 1 62 149
M  V30 156 1 65 150
M  V30 157 1 67 151
M  V30 158 1 69 152
M  V30 159 1 75 153
M  V30 160 1 76 154
M  V30 161 1 76 155
M  V30 162 1 78 156
M  V30 163 1 79 157
M  V30 164 1 79 158
M  V30 165 1 80 159
M  V30 166 1 80 160
M  V30 167 1 80 161
M  V30 168 1 81 162
M  V30 169 1 81 163
M  V30 170 1 82 164
M  V30 171 1 82 165
M  V30 172 1 82 166
M  V30 173 1 83 167 CFG=3
M  V30 174 1 84 168
M  V30 175 1 84 169
M  V30 176 1 85 170
M  V30 177 1 85 171
M  V30 178 1 86 172
M  V30 179 1 86 173
M  V30 180 1 87 174
M  V30 181 1 87 175
M  V30 182 1 88 176 CFG=1
M  V30 END BOND
M  V30 END CTAB
M  END
>  <catalyst_id>  (1) 
ZSPNOLIRVBARDB_YKDOIGRJSA_NONE

>  <source_smiles>  (1) 
CCC(CC)N1Cc2cc(cc(C(F)(F)F)c2)NC(=S)Nc2cc(cc(C(F)(F)F)c2)CN(C(CC)CC)[C@H]2CCCC[C@@H]2N(C(CC)CC)Cc2cc(cc(C(F)(F)F)c2)NC(=S)Nc2cc(cc(C(F)(F)F)c2)CN(C(CC)CC)[C@H]2CCCC[C@@H]21

>  <axial_configuration>  (1) 
none

>  <inchikey>  (1) 
ZSPNOLIRVBARDB-YKDOIGRJSA-N

>  <build_source>  (1) 
smiles

>  <rdkit_version>  (1) 
2025.09.6

>  <random_seed>  (1) 
42

>  <generated_at>  (1) 
2026-05-19T12:37:44

$$$$
