catalyst93
     RDKit          3D

  0  0  0  0  0  0  0  0  0  0999 V3000
M  V30 BEGIN CTAB
M  V30 COUNTS 54 57 0 0 0
M  V30 BEGIN ATOM
M  V30 1 C -1.154666 -3.137156 0.187105 0
M  V30 2 Si -1.874468 -1.424677 -0.102043 0 VAL=4
M  V30 3 C -3.646109 -1.510030 0.630081 0
M  V30 4 C -2.124437 -1.143843 -1.933170 0
M  V30 5 O -1.073520 -0.239383 0.753513 0
M  V30 6 C 0.019967 0.636240 0.396125 0
M  V30 7 C 0.104620 1.664674 1.598597 0
M  V30 8 C 1.042251 2.719697 1.580443 0
M  V30 9 C 1.135993 3.624910 2.640659 0
M  V30 10 C 0.295698 3.499711 3.742164 0
M  V30 11 C -0.641230 2.472030 3.783591 0
M  V30 12 C -0.737689 1.565224 2.724351 0
M  V30 13 C -0.303010 1.500029 -0.851938 0
M  V30 14 C -1.583630 2.079188 -0.985040 0
M  V30 15 C -1.904937 2.903666 -2.065627 0
M  V30 16 C -0.944627 3.191703 -3.028474 0
M  V30 17 C 0.339064 2.671484 -2.898801 0
M  V30 18 C 0.660217 1.847621 -1.814942 0
M  V30 19 C 1.405641 -0.124963 0.416258 0 CFG=1
M  V30 20 C 1.653237 -0.841677 1.779612 0
M  V30 21 N 2.654100 -1.899592 1.562409 0
M  V30 22 C 2.444159 -2.241458 0.205763 0
M  V30 23 C 2.973634 -3.362245 -0.412720 0
M  V30 24 C 2.763225 -3.531791 -1.780234 0
M  V30 25 C 2.058266 -2.566903 -2.509029 0
M  V30 26 C 1.557796 -1.421938 -1.879981 0
M  V30 27 C 1.741189 -1.267177 -0.513938 0
M  V30 28 H -1.911129 -3.903167 -0.009976 0
M  V30 29 H -0.822381 -3.247061 1.223322 0
M  V30 30 H -0.310493 -3.335628 -0.474375 0
M  V30 31 H -4.149513 -0.549164 0.491659 0
M  V30 32 H -3.594578 -1.734850 1.698975 0
M  V30 33 H -4.221983 -2.291595 0.126929 0
M  V30 34 H -2.582599 -2.027592 -2.388838 0
M  V30 35 H -1.189761 -0.951263 -2.459227 0
M  V30 36 H -2.797365 -0.300861 -2.113209 0
M  V30 37 H 1.710096 2.856308 0.732809 0
M  V30 38 H 1.864361 4.430885 2.601958 0
M  V30 39 H 0.367588 4.205152 4.565512 0
M  V30 40 H -1.302600 2.374175 4.640664 0
M  V30 41 H -1.484768 0.777885 2.795221 0
M  V30 42 H -2.344942 1.894877 -0.228151 0
M  V30 43 H -2.902546 3.327246 -2.145851 0
M  V30 44 H -1.190567 3.835975 -3.868165 0
M  V30 45 H 1.099570 2.917074 -3.636054 0
M  V30 46 H 1.687377 1.500649 -1.738443 0
M  V30 47 H 2.223710 0.596781 0.277192 0
M  V30 48 H 0.741061 -1.306621 2.173293 0
M  V30 49 H 2.024839 -0.145298 2.538760 0
M  V30 50 H 2.550651 -2.710172 2.167589 0
M  V30 51 H 3.550100 -4.087904 0.150403 0
M  V30 52 H 3.164038 -4.406583 -2.285356 0
M  V30 53 H 1.913953 -2.700483 -3.578709 0
M  V30 54 H 1.047151 -0.682112 -2.482663 0
M  V30 END ATOM
M  V30 BEGIN BOND
M  V30 1 1 1 2
M  V30 2 1 2 3
M  V30 3 1 2 4
M  V30 4 1 2 5
M  V30 5 1 5 6
M  V30 6 1 6 7
M  V30 7 2 7 8
M  V30 8 1 8 9
M  V30 9 2 9 10
M  V30 10 1 10 11
M  V30 11 2 11 12
M  V30 12 1 6 13
M  V30 13 2 13 14
M  V30 14 1 14 15
M  V30 15 2 15 16
M  V30 16 1 16 17
M  V30 17 2 17 18
M  V30 18 1 6 19
M  V30 19 1 19 20
M  V30 20 1 20 21
M  V30 21 1 21 22
M  V30 22 2 22 23
M  V30 23 1 23 24
M  V30 24 2 24 25
M  V30 25 1 25 26
M  V30 26 2 26 27
M  V30 27 1 12 7
M  V30 28 1 18 13
M  V30 29 1 27 19
M  V30 30 1 27 22
M  V30 31 1 1 28
M  V30 32 1 1 29
M  V30 33 1 1 30
M  V30 34 1 3 31
M  V30 35 1 3 32
M  V30 36 1 3 33
M  V30 37 1 4 34
M  V30 38 1 4 35
M  V30 39 1 4 36
M  V30 40 1 8 37
M  V30 41 1 9 38
M  V30 42 1 10 39
M  V30 43 1 11 40
M  V30 44 1 12 41
M  V30 45 1 14 42
M  V30 46 1 15 43
M  V30 47 1 16 44
M  V30 48 1 17 45
M  V30 49 1 18 46
M  V30 50 1 19 47 CFG=3
M  V30 51 1 20 48
M  V30 52 1 20 49
M  V30 53 1 21 50
M  V30 54 1 23 51
M  V30 55 1 24 52
M  V30 56 1 25 53
M  V30 57 1 26 54
M  V30 END BOND
M  V30 END CTAB
M  END
>  <catalyst_id>  (1) 
HMVICWNLARKUTP_QFIPXVFZSA_NONE

>  <source_smiles>  (1) 
C[Si](C)(C)OC(c1ccccc1)(c1ccccc1)[C@H]1CNc2ccccc21

>  <axial_configuration>  (1) 
none

>  <inchikey>  (1) 
HMVICWNLARKUTP-QFIPXVFZSA-N

>  <build_source>  (1) 
smiles

>  <rdkit_version>  (1) 
2025.09.6

>  <random_seed>  (1) 
42

>  <generated_at>  (1) 
2026-05-19T12:31:43

$$$$
