catalyst268
     RDKit          3D

  0  0  0  0  0  0  0  0  0  0999 V3000
M  V30 BEGIN CTAB
M  V30 COUNTS 48 52 0 0 0
M  V30 BEGIN ATOM
M  V30 1 C 5.467533 0.704319 -0.446587 0
M  V30 2 S 4.520769 -0.356771 0.623134 0
M  V30 3 O 3.876978 -1.383448 -0.166387 0
M  V30 4 O 5.359876 -0.700003 1.751648 0
M  V30 5 N 3.366862 0.717058 1.238459 0
M  V30 6 C 2.125706 0.834686 0.538761 0
M  V30 7 C 2.035763 1.850934 -0.411040 0
M  V30 8 C 0.902289 1.994124 -1.218178 0
M  V30 9 C 0.869713 3.001022 -2.198800 0
M  V30 10 C -0.223065 3.140252 -3.050871 0
M  V30 11 C -1.293400 2.266367 -2.939122 0
M  V30 12 C -1.275341 1.266939 -1.963326 0
M  V30 13 C -0.195071 1.113912 -1.058075 0
M  V30 14 C -0.142273 0.118669 -0.027927 0
M  V30 15 C 1.055195 -0.047686 0.734239 0
M  V30 16 C 1.153483 -1.244723 1.661786 0
M  V30 17 N 1.309445 -2.524059 0.954149 0
M  V30 18 C 0.384291 -2.714009 -0.174918 0
M  V30 19 C -1.023716 -2.222816 0.096560 0
M  V30 20 C -2.053365 -3.147048 0.292584 0
M  V30 21 C -3.329914 -2.711933 0.633824 0
M  V30 22 C -3.598313 -1.352513 0.834056 0
M  V30 23 C -4.884616 -0.950744 1.232454 0
M  V30 24 C -5.175081 0.388152 1.484335 0
M  V30 25 C -4.178129 1.342670 1.350353 0
M  V30 26 C -2.896535 0.957749 0.948927 0
M  V30 27 C -2.570761 -0.390499 0.655701 0
M  V30 28 C -1.277541 -0.828591 0.222088 0
M  V30 29 H 5.827310 1.559462 0.128424 0
M  V30 30 H 6.316187 0.128487 -0.822580 0
M  V30 31 H 4.842369 1.023555 -1.281505 0
M  V30 32 H 3.300046 0.605578 2.252112 0
M  V30 33 H 2.874519 2.532029 -0.536554 0
M  V30 34 H 1.707993 3.685058 -2.316140 0
M  V30 35 H -0.230905 3.920320 -3.807321 0
M  V30 36 H -2.145000 2.353622 -3.608912 0
M  V30 37 H -2.129110 0.592776 -1.923071 0
M  V30 38 H 0.282478 -1.277631 2.329304 0
M  V30 39 H 1.996787 -1.140221 2.352295 0
M  V30 40 H 2.258628 -2.542582 0.561317 0
M  V30 41 H 0.772410 -2.227026 -1.079340 0
M  V30 42 H 0.367235 -3.783906 -0.415008 0
M  V30 43 H -1.860943 -4.213492 0.199946 0
M  V30 44 H -4.110741 -3.455641 0.779928 0
M  V30 45 H -5.674964 -1.687530 1.361885 0
M  V30 46 H -6.174031 0.680069 1.796437 0
M  V30 47 H -4.389664 2.387991 1.559073 0
M  V30 48 H -2.141385 1.737071 0.871884 0
M  V30 END ATOM
M  V30 BEGIN BOND
M  V30 1 1 1 2
M  V30 2 2 2 3
M  V30 3 2 2 4
M  V30 4 1 2 5
M  V30 5 1 5 6
M  V30 6 2 6 7
M  V30 7 1 7 8
M  V30 8 2 8 9
M  V30 9 1 9 10
M  V30 10 2 10 11
M  V30 11 1 11 12
M  V30 12 2 12 13
M  V30 13 1 13 14
M  V30 14 2 14 15
M  V30 15 1 15 16
M  V30 16 1 16 17
M  V30 17 1 17 18
M  V30 18 1 18 19
M  V30 19 2 19 20
M  V30 20 1 20 21
M  V30 21 2 21 22
M  V30 22 1 22 23
M  V30 23 2 23 24
M  V30 24 1 24 25
M  V30 25 2 25 26
M  V30 26 1 26 27
M  V30 27 2 27 28
M  V30 28 1 15 6
M  V30 29 1 28 19
M  V30 30 1 13 8
M  V30 31 1 28 14
M  V30 32 1 27 22
M  V30 33 1 1 29
M  V30 34 1 1 30
M  V30 35 1 1 31
M  V30 36 1 5 32
M  V30 37 1 7 33
M  V30 38 1 9 34
M  V30 39 1 10 35
M  V30 40 1 11 36
M  V30 41 1 12 37
M  V30 42 1 16 38
M  V30 43 1 16 39
M  V30 44 1 17 40
M  V30 45 1 18 41
M  V30 46 1 18 42
M  V30 47 1 20 43
M  V30 48 1 21 44
M  V30 49 1 23 45
M  V30 50 1 24 46
M  V30 51 1 25 47
M  V30 52 1 26 48
M  V30 END BOND
M  V30 END CTAB
M  END
>  <catalyst_id>  (1) 
PXLMCFIMLJAJEW_UHFFFAOYSA_S

>  <source_smiles>  (1) 
CS(=O)(=O)Nc1cc2ccccc2c2c1CNCc1ccc3ccccc3c1-2

>  <axial_configuration>  (1) 
S

>  <inchikey>  (1) 
PXLMCFIMLJAJEW-UHFFFAOYSA-N

>  <build_source>  (1) 
smiles+axial_bridged

>  <final_biaryl_angle_deg>  (1) 
-63.79

>  <n_valid_conformers>  (1) 
11

>  <rdkit_version>  (1) 
2025.09.6

>  <random_seed>  (1) 
42

>  <generated_at>  (1) 
2026-05-19T12:30:41

$$$$
