catalyst425
     RDKit          3D

  0  0  0  0  0  0  0  0  0  0999 V3000
M  V30 BEGIN CTAB
M  V30 COUNTS 85 90 0 0 0
M  V30 BEGIN ATOM
M  V30 1 C -3.767259 3.968019 2.695222 0
M  V30 2 C -2.567208 4.132707 2.123549 0
M  V30 3 C -2.133254 3.707022 0.736529 0 CFG=1
M  V30 4 C -0.750440 2.998373 0.769526 0
M  V30 5 N -0.722243 1.760119 -0.051153 0
M  V30 6 C -1.115518 2.104050 -1.435131 0
M  V30 7 C -2.531879 2.692755 -1.500611 0
M  V30 8 C -3.105968 2.815156 -0.075583 0 CFG=1
M  V30 9 C -3.142353 1.386116 0.497976 0
M  V30 10 C -1.712784 0.795962 0.544475 0 CFG=1
M  V30 11 C -1.636265 -0.658014 -0.075671 0 CFG=1
M  V30 12 N -0.217898 -1.005129 -0.303975 0
M  V30 13 C 0.209176 -1.962207 -1.102627 0
M  V30 14 C 1.408244 -2.483908 -1.531057 0
M  V30 15 N 2.709731 -2.335771 -1.398298 0
M  V30 16 C 3.457357 -1.238772 -0.915475 0
M  V30 17 C 2.972458 0.072553 -0.900675 0
M  V30 18 C 3.727699 1.129506 -0.365402 0
M  V30 19 C 3.165300 2.540122 -0.382415 0
M  V30 20 C 3.008351 3.099873 1.033696 0
M  V30 21 C 4.016146 3.473508 -1.246832 0
M  V30 22 C 4.993771 0.850522 0.169914 0
M  V30 23 C 5.507360 -0.453055 0.178027 0
M  V30 24 C 6.878242 -0.720512 0.774092 0
M  V30 25 C 6.789538 -1.638184 1.995949 0
M  V30 26 C 7.845248 -1.289453 -0.267284 0
M  V30 27 C 4.724631 -1.484540 -0.364274 0
M  V30 28 C 0.725689 -3.549992 -2.302553 0
M  V30 29 O 1.021261 -4.508521 -2.972483 0
M  V30 30 C -0.562466 -2.929144 -1.928151 0
M  V30 31 O -1.703092 -3.157341 -2.247646 0
M  V30 32 C -2.278144 -1.685646 0.857173 0
M  V30 33 C -1.587798 -2.047310 2.026844 0
M  V30 34 C -2.165017 -2.942890 2.900969 0
M  V30 35 N -3.374357 -3.496949 2.706573 0
M  V30 36 C -4.047417 -3.171974 1.592995 0
M  V30 37 C -5.291422 -3.757590 1.410323 0
M  V30 38 C -6.084472 -3.492788 0.290483 0
M  V30 39 C -5.622348 -2.622146 -0.683640 0
M  V30 40 O -6.283253 -2.265004 -1.825508 0
M  V30 41 C -7.499148 -2.948915 -2.102914 0
M  V30 42 C -4.370284 -2.022731 -0.516967 0
M  V30 43 C -3.555712 -2.271071 0.618187 0
M  V30 44 H -3.953110 4.336977 3.700237 0
M  V30 45 H -4.596269 3.479814 2.194827 0
M  V30 46 H -1.810128 4.662602 2.702820 0
M  V30 47 H -2.005053 4.643751 0.174191 0
M  V30 48 H -0.439747 2.756496 1.794420 0
M  V30 49 H 0.015303 3.689945 0.394818 0
M  V30 50 H -1.043768 1.224064 -2.084589 0
M  V30 51 H -0.396198 2.821968 -1.849556 0
M  V30 52 H -2.507116 3.676195 -1.984833 0
M  V30 53 H -3.176421 2.048983 -2.111381 0
M  V30 54 H -4.112322 3.245143 -0.119118 0
M  V30 55 H -3.805524 0.780900 -0.128110 0
M  V30 56 H -3.572402 1.379671 1.505031 0
M  V30 57 H -1.430143 0.698177 1.602709 0
M  V30 58 H -2.122190 -0.639215 -1.054791 0
M  V30 59 H 0.407847 -0.275779 0.047730 0
M  V30 60 H 3.329379 -3.064043 -1.756979 0
M  V30 61 H 2.007959 0.293273 -1.349241 0
M  V30 62 H 2.164381 2.512375 -0.831325 0
M  V30 63 H 2.389687 2.437803 1.649740 0
M  V30 64 H 3.973445 3.218996 1.537883 0
M  V30 65 H 2.525644 4.082753 1.007730 0
M  V30 66 H 3.552089 4.463381 -1.315533 0
M  V30 67 H 5.023652 3.606338 -0.837876 0
M  V30 68 H 4.118181 3.079826 -2.264282 0
M  V30 69 H 5.589132 1.660722 0.586612 0
M  V30 70 H 7.301979 0.232643 1.117483 0
M  V30 71 H 6.427938 -2.638080 1.732439 0
M  V30 72 H 7.773686 -1.753258 2.462980 0
M  V30 73 H 6.108104 -1.224317 2.747629 0
M  V30 74 H 7.916474 -0.627864 -1.137834 0
M  V30 75 H 8.849619 -1.393937 0.157288 0
M  V30 76 H 7.531176 -2.276705 -0.623090 0
M  V30 77 H 5.103968 -2.503841 -0.344985 0
M  V30 78 H -0.606765 -1.638754 2.251350 0
M  V30 79 H -1.655669 -3.245956 3.811036 0
M  V30 80 H -5.658736 -4.446754 2.168065 0
M  V30 81 H -7.047902 -3.984913 0.218092 0
M  V30 82 H -8.260646 -2.716120 -1.351407 0
M  V30 83 H -7.867915 -2.595693 -3.070728 0
M  V30 84 H -7.337975 -4.029276 -2.181708 0
M  V30 85 H -4.035847 -1.365099 -1.313835 0
M  V30 END ATOM
M  V30 BEGIN BOND
M  V30 1 2 1 2
M  V30 2 1 2 3
M  V30 3 1 3 4
M  V30 4 1 4 5
M  V30 5 1 5 6
M  V30 6 1 6 7
M  V30 7 1 7 8
M  V30 8 1 8 9
M  V30 9 1 9 10
M  V30 10 1 10 11
M  V30 11 1 11 12
M  V30 12 1 12 13
M  V30 13 2 13 14
M  V30 14 1 14 15
M  V30 15 1 15 16
M  V30 16 2 16 17
M  V30 17 1 17 18
M  V30 18 1 18 19
M  V30 19 1 19 20
M  V30 20 1 19 21
M  V30 21 2 18 22
M  V30 22 1 22 23
M  V30 23 1 23 24
M  V30 24 1 24 25
M  V30 25 1 24 26
M  V30 26 2 23 27
M  V30 27 1 14 28
M  V30 28 2 28 29
M  V30 29 1 28 30
M  V30 30 2 30 31
M  V30 31 1 11 32
M  V30 32 2 32 33
M  V30 33 1 33 34
M  V30 34 2 34 35
M  V30 35 1 35 36
M  V30 36 2 36 37
M  V30 37 1 37 38
M  V30 38 2 38 39
M  V30 39 1 39 40
M  V30 40 1 40 41
M  V30 41 1 39 42
M  V30 42 2 42 43
M  V30 43 1 8 3
M  V30 44 1 30 13
M  V30 45 1 43 32
M  V30 46 1 10 5
M  V30 47 1 27 16
M  V30 48 1 43 36
M  V30 49 1 1 44
M  V30 50 1 1 45
M  V30 51 1 2 46
M  V30 52 1 3 47 CFG=3
M  V30 53 1 4 48
M  V30 54 1 4 49
M  V30 55 1 6 50
M  V30 56 1 6 51
M  V30 57 1 7 52
M  V30 58 1 7 53
M  V30 59 1 8 54 CFG=3
M  V30 60 1 9 55
M  V30 61 1 9 56
M  V30 62 1 10 57 CFG=1
M  V30 63 1 11 58 CFG=3
M  V30 64 1 12 59
M  V30 65 1 15 60
M  V30 66 1 17 61
M  V30 67 1 19 62
M  V30 68 1 20 63
M  V30 69 1 20 64
M  V30 70 1 20 65
M  V30 71 1 21 66
M  V30 72 1 21 67
M  V30 73 1 21 68
M  V30 74 1 22 69
M  V30 75 1 24 70
M  V30 76 1 25 71
M  V30 77 1 25 72
M  V30 78 1 25 73
M  V30 79 1 26 74
M  V30 80 1 26 75
M  V30 81 1 26 76
M  V30 82 1 27 77
M  V30 83 1 33 78
M  V30 84 1 34 79
M  V30 85 1 37 80
M  V30 86 1 38 81
M  V30 87 1 41 82
M  V30 88 1 41 83
M  V30 89 1 41 84
M  V30 90 1 42 85
M  V30 END BOND
M  V30 END CTAB
M  END
>  <catalyst_id>  (1) 
ZAQYZFDVMDDPPE_IECLFQADSA_NONE

>  <source_smiles>  (1) 
C=C[C@H]1CN2CC[C@H]1C[C@H]2[C@@H](Nc1c(Nc2cc(C(C)C)cc(C(C)C)c2)c(=O)c1=O)c1ccnc2ccc(OC)cc12

>  <axial_configuration>  (1) 
none

>  <inchikey>  (1) 
ZAQYZFDVMDDPPE-IECLFQADSA-N

>  <build_source>  (1) 
smiles

>  <rdkit_version>  (1) 
2025.09.6

>  <random_seed>  (1) 
42

>  <generated_at>  (1) 
2026-05-19T12:37:10

$$$$
