catalyst260
     RDKit          3D

  0  0  0  0  0  0  0  0  0  0999 V3000
M  V30 BEGIN CTAB
M  V30 COUNTS 18 18 0 0 0
M  V30 BEGIN ATOM
M  V30 1 O 1.952001 -1.516027 -1.043753 0
M  V30 2 C 1.846322 -0.495996 -0.379143 0
M  V30 3 O 2.840876 -0.109901 0.443832 0
M  V30 4 C 0.667080 0.478551 -0.394727 0 CFG=2
M  V30 5 C 0.023512 0.622153 0.987554 0
M  V30 6 C -1.419505 0.179512 0.790127 0 CFG=1
M  V30 7 O -2.223722 1.320837 0.485153 0
M  V30 8 C -1.347412 -0.741636 -0.419458 0
M  V30 9 N -0.411857 -0.018011 -1.294371 0
M  V30 10 H 3.529509 -0.798856 0.330613 0
M  V30 11 H 1.030375 1.437220 -0.779532 0
M  V30 12 H 0.082073 1.657149 1.341315 0
M  V30 13 H 0.509535 -0.027969 1.723979 0
M  V30 14 H -1.836015 -0.307076 1.676086 0
M  V30 15 H -1.978045 1.576739 -0.426217 0
M  V30 16 H -0.944262 -1.724312 -0.150570 0
M  V30 17 H -2.313963 -0.863039 -0.916299 0
M  V30 18 H -0.006502 -0.669340 -1.974589 0
M  V30 END ATOM
M  V30 BEGIN BOND
M  V30 1 2 1 2
M  V30 2 1 2 3
M  V30 3 1 2 4
M  V30 4 1 4 5
M  V30 5 1 5 6
M  V30 6 1 6 7
M  V30 7 1 6 8
M  V30 8 1 8 9
M  V30 9 1 9 4
M  V30 10 1 3 10
M  V30 11 1 4 11 CFG=3
M  V30 12 1 5 12
M  V30 13 1 5 13
M  V30 14 1 6 14 CFG=1
M  V30 15 1 7 15
M  V30 16 1 8 16
M  V30 17 1 8 17
M  V30 18 1 9 18
M  V30 END BOND
M  V30 END CTAB
M  END
>  <catalyst_id>  (1) 
PMMYEEVYMWASQN_DMTCNVIQSA_NONE

>  <source_smiles>  (1) 
O=C(O)[C@@H]1C[C@@H](O)CN1

>  <axial_configuration>  (1) 
none

>  <inchikey>  (1) 
PMMYEEVYMWASQN-DMTCNVIQSA-N

>  <build_source>  (1) 
smiles

>  <rdkit_version>  (1) 
2025.09.6

>  <random_seed>  (1) 
42

>  <generated_at>  (1) 
2026-05-19T12:29:44

$$$$
