catalyst309
     RDKit          3D

  0  0  0  0  0  0  0  0  0  0999 V3000
M  V30 BEGIN CTAB
M  V30 COUNTS 42 45 0 0 0
M  V30 BEGIN ATOM
M  V30 1 C -2.157865 2.891301 1.146908 0
M  V30 2 C -1.203051 2.246805 0.132638 0
M  V30 3 C -0.327276 3.357414 -0.464131 0
M  V30 4 C -0.367389 1.101736 0.782695 0 CFG=2
M  V30 5 C 0.797193 0.626013 -0.103990 0
M  V30 6 N 1.471778 -0.469027 0.554016 0
M  V30 7 C 0.838842 -1.226571 1.512309 0
M  V30 8 N -0.369820 -1.145657 1.931584 0
M  V30 9 C -1.207969 -0.126472 1.259896 0 CFG=2
M  V30 10 C -2.115684 -0.754811 0.205017 0
M  V30 11 C -3.490499 -0.462787 0.200804 0
M  V30 12 C -4.341798 -1.008924 -0.762929 0
M  V30 13 C -3.835476 -1.866268 -1.734843 0
M  V30 14 C -2.480664 -2.184423 -1.736642 0
M  V30 15 C -1.629434 -1.637007 -0.772895 0
M  V30 16 S 1.922021 -2.469022 2.174191 0
M  V30 17 C 3.196027 -1.980179 1.026541 0
M  V30 18 C 4.449819 -2.551105 0.875549 0
M  V30 19 C 5.300631 -2.022877 -0.094197 0
M  V30 20 C 4.886076 -0.945196 -0.889034 0
M  V30 21 C 3.615628 -0.378836 -0.724185 0
M  V30 22 C 2.761225 -0.894777 0.241127 0
M  V30 23 H -1.604656 3.326612 1.986323 0
M  V30 24 H -2.874310 2.175020 1.553407 0
M  V30 25 H -2.738680 3.692730 0.677000 0
M  V30 26 H -1.801188 1.838399 -0.690376 0
M  V30 27 H 0.244766 2.995180 -1.323947 0
M  V30 28 H 0.373853 3.752496 0.278696 0
M  V30 29 H -0.942683 4.189716 -0.823438 0
M  V30 30 H 0.096241 1.524301 1.688885 0
M  V30 31 H 1.501351 1.453624 -0.242911 0
M  V30 32 H 0.445580 0.320831 -1.095576 0
M  V30 33 H -1.861302 0.240676 2.061791 0
M  V30 34 H -3.917324 0.188884 0.959273 0
M  V30 35 H -5.402063 -0.770779 -0.747172 0
M  V30 36 H -4.497728 -2.297454 -2.480440 0
M  V30 37 H -2.084453 -2.869786 -2.481364 0
M  V30 38 H -0.583149 -1.928797 -0.788840 0
M  V30 39 H 4.761254 -3.387324 1.492919 0
M  V30 40 H 6.290638 -2.450321 -0.236327 0
M  V30 41 H 5.560290 -0.545137 -1.643579 0
M  V30 42 H 3.321248 0.451800 -1.356700 0
M  V30 END ATOM
M  V30 BEGIN BOND
M  V30 1 1 1 2
M  V30 2 1 2 3
M  V30 3 1 2 4
M  V30 4 1 4 5
M  V30 5 1 5 6
M  V30 6 1 6 7
M  V30 7 2 7 8
M  V30 8 1 8 9
M  V30 9 1 9 10
M  V30 10 2 10 11
M  V30 11 1 11 12
M  V30 12 2 12 13
M  V30 13 1 13 14
M  V30 14 2 14 15
M  V30 15 1 7 16
M  V30 16 1 16 17
M  V30 17 2 17 18
M  V30 18 1 18 19
M  V30 19 2 19 20
M  V30 20 1 20 21
M  V30 21 2 21 22
M  V30 22 1 9 4
M  V30 23 1 15 10
M  V30 24 1 22 17
M  V30 25 1 22 6
M  V30 26 1 1 23
M  V30 27 1 1 24
M  V30 28 1 1 25
M  V30 29 1 2 26
M  V30 30 1 3 27
M  V30 31 1 3 28
M  V30 32 1 3 29
M  V30 33 1 4 30 CFG=1
M  V30 34 1 5 31
M  V30 35 1 5 32
M  V30 36 1 9 33 CFG=1
M  V30 37 1 11 34
M  V30 38 1 12 35
M  V30 39 1 13 36
M  V30 40 1 14 37
M  V30 41 1 15 38
M  V30 42 1 18 39
M  V30 43 1 19 40
M  V30 44 1 20 41
M  V30 45 1 21 42
M  V30 END BOND
M  V30 END CTAB
M  END
>  <catalyst_id>  (1) 
RPBRMANNSNGNFS_MAUKXSAKSA_NONE

>  <source_smiles>  (1) 
CC(C)[C@@H]1CN2C(=N[C@@H]1c1ccccc1)Sc1ccccc12

>  <axial_configuration>  (1) 
none

>  <inchikey>  (1) 
RPBRMANNSNGNFS-MAUKXSAKSA-N

>  <build_source>  (1) 
smiles

>  <rdkit_version>  (1) 
2025.09.6

>  <random_seed>  (1) 
42

>  <generated_at>  (1) 
2026-05-19T12:37:18

$$$$
