catalyst241
     RDKit          3D

  0  0  0  0  0  0  0  0  0  0999 V3000
M  V30 BEGIN CTAB
M  V30 COUNTS 96 102 0 0 0
M  V30 BEGIN ATOM
M  V30 1 C -1.952740 0.880090 6.968151 0
M  V30 2 C -2.546897 1.068324 5.577893 0
M  V30 3 C -1.492138 1.468648 4.531713 0 CFG=1
M  V30 4 C -0.496930 0.324550 4.211691 0
M  V30 5 N -0.490646 -0.018298 2.766182 0
M  V30 6 C -0.075383 1.185170 2.009102 0
M  V30 7 C -0.993615 2.385030 2.276683 0
M  V30 8 C -2.137191 1.948835 3.207293 0 CFG=1
M  V30 9 C -2.854462 0.787804 2.499537 0
M  V30 10 C -1.895141 -0.420357 2.393180 0 CFG=1
M  V30 11 C -1.974157 -1.136781 0.988063 0 CFG=1
M  V30 12 N -0.919580 -2.175142 0.922643 0
M  V30 13 C -0.440191 -2.398660 -0.431300 0 CFG=1
M  V30 14 N 0.561506 -1.391362 -0.632818 0
M  V30 15 C 0.581992 -0.547276 -1.693960 0
M  V30 16 O -0.264985 -0.469584 -2.569704 0
M  V30 17 O 1.695712 0.214132 -1.618829 0
M  V30 18 C 1.843043 1.139455 -2.698458 0
M  V30 19 C 3.176805 1.839127 -2.540219 0
M  V30 20 C 3.164680 3.168445 -2.092350 0
M  V30 21 C 4.343205 3.894583 -1.912595 0
M  V30 22 C 4.270094 5.226388 -1.466381 0
M  V30 23 C 5.420120 5.986734 -1.276650 0
M  V30 24 C 6.658774 5.421106 -1.531004 0
M  V30 25 C 6.741642 4.097381 -1.974493 0
M  V30 26 C 5.592974 3.287861 -2.179753 0
M  V30 27 C 5.628392 1.919004 -2.629924 0
M  V30 28 C 6.838199 1.232863 -2.913265 0
M  V30 29 C 6.870637 -0.094936 -3.341580 0
M  V30 30 C 5.686901 -0.789606 -3.500368 0
M  V30 31 C 4.477459 -0.151506 -3.233369 0
M  V30 32 C 4.412449 1.196551 -2.803468 0
M  V30 33 C 0.124993 -3.846019 -0.622940 0
M  V30 34 C 1.300349 -4.155204 0.326213 0
M  V30 35 C -0.994520 -4.877912 -0.364884 0
M  V30 36 C 0.610094 -4.028821 -2.076415 0
M  V30 37 C -3.348305 -1.750885 0.724176 0
M  V30 38 C -3.804609 -2.754009 1.594133 0
M  V30 39 C -5.061787 -3.287077 1.407803 0
M  V30 40 N -5.896110 -2.899264 0.428048 0
M  V30 41 C -5.466839 -1.968541 -0.436346 0
M  V30 42 C -6.336931 -1.597952 -1.449678 0
M  V30 43 C -5.983486 -0.659074 -2.418505 0
M  V30 44 C -4.722024 -0.083805 -2.395423 0
M  V30 45 O -4.464228 0.806430 -3.400457 0
M  V30 46 C -3.092320 0.951435 -3.757727 0
M  V30 47 C -3.840345 -0.417388 -1.365768 0
M  V30 48 C -4.189108 -1.359617 -0.359486 0
M  V30 49 H -2.745484 0.638868 7.683872 0
M  V30 50 H -1.223147 0.065605 6.989785 0
M  V30 51 H -1.456696 1.794580 7.308272 0
M  V30 52 H -3.314069 1.849677 5.637187 0
M  V30 53 H -3.055735 0.143508 5.283548 0
M  V30 54 H -0.918953 2.311601 4.942962 0
M  V30 55 H 0.515200 0.621109 4.516578 0
M  V30 56 H -0.717742 -0.580444 4.790250 0
M  V30 57 H 0.956878 1.445009 2.276302 0
M  V30 58 H -0.044252 0.972520 0.935631 0
M  V30 59 H -1.398078 2.763671 1.330171 0
M  V30 60 H -0.424124 3.202581 2.734027 0
M  V30 61 H -2.824839 2.783527 3.379825 0
M  V30 62 H -3.755841 0.499783 3.052316 0
M  V30 63 H -3.185956 1.123242 1.509292 0
M  V30 64 H -2.208147 -1.159389 3.144209 0
M  V30 65 H -1.749176 -0.359107 0.256117 0
M  V30 66 H -0.147627 -1.831765 1.497762 0
M  V30 67 H -1.248415 -2.265828 -1.161219 0
M  V30 68 H 1.350903 -1.334858 -0.007189 0
M  V30 69 H 1.796342 0.631807 -3.669369 0
M  V30 70 H 1.021448 1.865366 -2.663985 0
M  V30 71 H 2.209420 3.646641 -1.879183 0
M  V30 72 H 3.305267 5.687692 -1.263201 0
M  V30 73 H 5.345612 7.014748 -0.934842 0
M  V30 74 H 7.565435 6.003187 -1.388358 0
M  V30 75 H 7.738717 3.707598 -2.157300 0
M  V30 76 H 7.798921 1.727118 -2.801297 0
M  V30 77 H 7.822493 -0.578510 -3.543927 0
M  V30 78 H 5.697791 -1.825523 -3.826332 0
M  V30 79 H 3.573093 -0.740865 -3.364495 0
M  V30 80 H 1.659435 -5.181012 0.182846 0
M  V30 81 H 1.009739 -4.056929 1.377256 0
M  V30 82 H 2.149727 -3.488155 0.147428 0
M  V30 83 H -1.332682 -4.854946 0.675939 0
M  V30 84 H -0.648307 -5.897471 -0.570910 0
M  V30 85 H -1.862714 -4.685422 -1.005040 0
M  V30 86 H -0.193824 -3.818021 -2.789926 0
M  V30 87 H 0.949391 -5.055767 -2.253259 0
M  V30 88 H 1.449457 -3.365366 -2.309667 0
M  V30 89 H -3.181933 -3.123363 2.403239 0
M  V30 90 H -5.444129 -4.063332 2.063847 0
M  V30 91 H -7.320606 -2.060271 -1.492463 0
M  V30 92 H -6.689677 -0.398211 -3.202173 0
M  V30 93 H -2.554042 1.539743 -3.008502 0
M  V30 94 H -2.616459 -0.021692 -3.917533 0
M  V30 95 H -3.051330 1.500781 -4.703064 0
M  V30 96 H -2.866636 0.055415 -1.349811 0
M  V30 END ATOM
M  V30 BEGIN BOND
M  V30 1 1 1 2
M  V30 2 1 2 3
M  V30 3 1 3 4
M  V30 4 1 4 5
M  V30 5 1 5 6
M  V30 6 1 6 7
M  V30 7 1 7 8
M  V30 8 1 8 9
M  V30 9 1 9 10
M  V30 10 1 10 11
M  V30 11 1 11 12
M  V30 12 1 12 13
M  V30 13 1 13 14
M  V30 14 1 14 15
M  V30 15 2 15 16
M  V30 16 1 15 17
M  V30 17 1 17 18
M  V30 18 1 18 19
M  V30 19 2 19 20
M  V30 20 1 20 21
M  V30 21 2 21 22
M  V30 22 1 22 23
M  V30 23 2 23 24
M  V30 24 1 24 25
M  V30 25 2 25 26
M  V30 26 1 26 27
M  V30 27 2 27 28
M  V30 28 1 28 29
M  V30 29 2 29 30
M  V30 30 1 30 31
M  V30 31 2 31 32
M  V30 32 1 13 33
M  V30 33 1 33 34
M  V30 34 1 33 35
M  V30 35 1 33 36
M  V30 36 1 11 37
M  V30 37 2 37 38
M  V30 38 1 38 39
M  V30 39 2 39 40
M  V30 40 1 40 41
M  V30 41 2 41 42
M  V30 42 1 42 43
M  V30 43 2 43 44
M  V30 44 1 44 45
M  V30 45 1 45 46
M  V30 46 1 44 47
M  V30 47 2 47 48
M  V30 48 1 8 3
M  V30 49 1 32 19
M  V30 50 1 48 37
M  V30 51 1 10 5
M  V30 52 1 26 21
M  V30 53 1 32 27
M  V30 54 1 48 41
M  V30 55 1 1 49
M  V30 56 1 1 50
M  V30 57 1 1 51
M  V30 58 1 2 52
M  V30 59 1 2 53
M  V30 60 1 3 54 CFG=1
M  V30 61 1 4 55
M  V30 62 1 4 56
M  V30 63 1 6 57
M  V30 64 1 6 58
M  V30 65 1 7 59
M  V30 66 1 7 60
M  V30 67 1 8 61 CFG=1
M  V30 68 1 9 62
M  V30 69 1 9 63
M  V30 70 1 10 64 CFG=1
M  V30 71 1 11 65 CFG=3
M  V30 72 1 12 66
M  V30 73 1 13 67 CFG=3
M  V30 74 1 14 68
M  V30 75 1 18 69
M  V30 76 1 18 70
M  V30 77 1 20 71
M  V30 78 1 22 72
M  V30 79 1 23 73
M  V30 80 1 24 74
M  V30 81 1 25 75
M  V30 82 1 28 76
M  V30 83 1 29 77
M  V30 84 1 30 78
M  V30 85 1 31 79
M  V30 86 1 34 80
M  V30 87 1 34 81
M  V30 88 1 34 82
M  V30 89 1 35 83
M  V30 90 1 35 84
M  V30 91 1 35 85
M  V30 92 1 36 86
M  V30 93 1 36 87
M  V30 94 1 36 88
M  V30 95 1 38 89
M  V30 96 1 39 90
M  V30 97 1 42 91
M  V30 98 1 43 92
M  V30 99 1 46 93
M  V30 100 1 46 94
M  V30 101 1 46 95
M  V30 102 1 47 96
M  V30 END BOND
M  V30 END CTAB
M  END
>  <catalyst_id>  (1) 
OJYAINGFLSJATA_QMJLZFPGSA_NONE

>  <source_smiles>  (1) 
CC[C@H]1CN2CC[C@H]1C[C@H]2[C@@H](N[C@@H](NC(=O)OCc1cc2ccccc2c2ccccc12)C(C)(C)C)c1ccnc2ccc(OC)cc12

>  <axial_configuration>  (1) 
none

>  <inchikey>  (1) 
OJYAINGFLSJATA-QMJLZFPGSA-N

>  <build_source>  (1) 
smiles

>  <rdkit_version>  (1) 
2025.09.6

>  <random_seed>  (1) 
42

>  <generated_at>  (1) 
2026-05-19T12:36:39

$$$$
