catalyst422
     RDKit          3D

  0  0  0  0  0  0  0  0  0  0999 V3000
M  V30 BEGIN CTAB
M  V30 COUNTS 72 77 0 0 0
M  V30 BEGIN ATOM
M  V30 1 C -3.046598 2.759053 3.445984 0
M  V30 2 C -1.984552 2.999012 2.665896 0
M  V30 3 C -1.921311 2.992006 1.153127 0 CFG=1
M  V30 4 C -0.710898 2.154645 0.653228 0
M  V30 5 N -1.025186 1.355554 -0.562165 0
M  V30 6 C -1.610449 2.270809 -1.572204 0
M  V30 7 C -2.957734 2.845082 -1.105057 0
M  V30 8 C -3.175931 2.505625 0.382559 0 CFG=1
M  V30 9 C -3.277356 0.971716 0.491746 0
M  V30 10 C -2.066394 0.319074 -0.217264 0 CFG=2
M  V30 11 C -1.480482 -0.896338 0.601173 0 CFG=2
M  V30 12 N -0.125460 -1.207290 0.111154 0
M  V30 13 C 0.767033 -1.919780 0.769817 0
M  V30 14 C 2.084023 -2.281294 0.616561 0
M  V30 15 N 3.084390 -2.118823 -0.225384 0
M  V30 16 C 3.055766 -1.262674 -1.396228 0
M  V30 17 C 3.811517 0.013848 -1.109266 0
M  V30 18 C 5.156045 0.148896 -1.485794 0
M  V30 19 C 5.874251 1.321615 -1.200638 0
M  V30 20 C 7.313079 1.464889 -1.640417 0
M  V30 21 F 7.976988 0.276783 -1.687707 0
M  V30 22 F 8.043795 2.268629 -0.819584 0
M  V30 23 F 7.418022 2.003674 -2.885685 0
M  V30 24 C 5.223829 2.371446 -0.531666 0
M  V30 25 C 3.884552 2.252333 -0.127860 0
M  V30 26 C 3.185612 3.380606 0.592730 0
M  V30 27 F 2.394343 2.947670 1.614253 0
M  V30 28 F 4.043377 4.282922 1.144492 0
M  V30 29 F 2.371130 4.094889 -0.232151 0
M  V30 30 C 3.188897 1.070315 -0.427469 0
M  V30 31 C 2.073147 -3.060127 1.881840 0
M  V30 32 O 2.829850 -3.732572 2.537772 0
M  V30 33 C 0.667874 -2.635046 2.071337 0
M  V30 34 O -0.119648 -2.792185 2.972665 0
M  V30 35 C -2.393441 -2.118716 0.550530 0
M  V30 36 C -3.059977 -2.461719 1.737270 0
M  V30 37 C -3.921972 -3.537932 1.739312 0
M  V30 38 N -4.181422 -4.286600 0.653066 0
M  V30 39 C -3.545120 -3.986785 -0.488552 0
M  V30 40 C -3.815094 -4.783032 -1.593253 0
M  V30 41 C -3.206699 -4.567331 -2.829409 0
M  V30 42 C -2.299950 -3.530123 -2.969776 0
M  V30 43 C -2.013289 -2.714627 -1.874501 0
M  V30 44 C -2.628153 -2.913202 -0.611166 0
M  V30 45 H -4.026679 2.517072 3.050186 0
M  V30 46 H -2.956552 2.812875 4.527747 0
M  V30 47 H -1.050193 3.261190 3.164830 0
M  V30 48 H -1.744095 4.038326 0.863674 0
M  V30 49 H 0.114715 2.836620 0.415108 0
M  V30 50 H -0.316732 1.496586 1.437048 0
M  V30 51 H -1.740724 1.740259 -2.523469 0
M  V30 52 H -0.905209 3.084283 -1.785149 0
M  V30 53 H -2.969599 3.931277 -1.253269 0
M  V30 54 H -3.774292 2.427188 -1.706368 0
M  V30 55 H -4.091043 2.986236 0.743795 0
M  V30 56 H -4.203250 0.630228 0.012066 0
M  V30 57 H -3.338168 0.669239 1.541668 0
M  V30 58 H -2.423975 -0.075842 -1.176748 0
M  V30 59 H -1.372197 -0.565501 1.643207 0
M  V30 60 H 0.167235 -0.497443 -0.565613 0
M  V30 61 H 4.012750 -2.481793 -0.006471 0
M  V30 62 H 3.527136 -1.792264 -2.232922 0
M  V30 63 H 2.036933 -1.032433 -1.728164 0
M  V30 64 H 5.655081 -0.669278 -2.006329 0
M  V30 65 H 5.772133 3.290189 -0.315000 0
M  V30 66 H 2.148559 0.968527 -0.117609 0
M  V30 67 H -2.899229 -1.911024 2.659744 0
M  V30 68 H -4.443600 -3.835960 2.644263 0
M  V30 69 H -4.521933 -5.603021 -1.484979 0
M  V30 70 H -3.440471 -5.213915 -3.670624 0
M  V30 71 H -1.810663 -3.355029 -3.924172 0
M  V30 72 H -1.286340 -1.921488 -2.021969 0
M  V30 END ATOM
M  V30 BEGIN BOND
M  V30 1 2 1 2
M  V30 2 1 2 3
M  V30 3 1 3 4
M  V30 4 1 4 5
M  V30 5 1 5 6
M  V30 6 1 6 7
M  V30 7 1 7 8
M  V30 8 1 8 9
M  V30 9 1 9 10
M  V30 10 1 10 11
M  V30 11 1 11 12
M  V30 12 1 12 13
M  V30 13 2 13 14
M  V30 14 1 14 15
M  V30 15 1 15 16
M  V30 16 1 16 17
M  V30 17 2 17 18
M  V30 18 1 18 19
M  V30 19 1 19 20
M  V30 20 1 20 21
M  V30 21 1 20 22
M  V30 22 1 20 23
M  V30 23 2 19 24
M  V30 24 1 24 25
M  V30 25 1 25 26
M  V30 26 1 26 27
M  V30 27 1 26 28
M  V30 28 1 26 29
M  V30 29 2 25 30
M  V30 30 1 14 31
M  V30 31 2 31 32
M  V30 32 1 31 33
M  V30 33 2 33 34
M  V30 34 1 11 35
M  V30 35 2 35 36
M  V30 36 1 36 37
M  V30 37 2 37 38
M  V30 38 1 38 39
M  V30 39 2 39 40
M  V30 40 1 40 41
M  V30 41 2 41 42
M  V30 42 1 42 43
M  V30 43 2 43 44
M  V30 44 1 8 3
M  V30 45 1 33 13
M  V30 46 1 44 35
M  V30 47 1 10 5
M  V30 48 1 30 17
M  V30 49 1 44 39
M  V30 50 1 1 45
M  V30 51 1 1 46
M  V30 52 1 2 47
M  V30 53 1 3 48 CFG=3
M  V30 54 1 4 49
M  V30 55 1 4 50
M  V30 56 1 6 51
M  V30 57 1 6 52
M  V30 58 1 7 53
M  V30 59 1 7 54
M  V30 60 1 8 55 CFG=1
M  V30 61 1 9 56
M  V30 62 1 9 57
M  V30 63 1 10 58 CFG=3
M  V30 64 1 11 59 CFG=1
M  V30 65 1 12 60
M  V30 66 1 15 61
M  V30 67 1 16 62
M  V30 68 1 16 63
M  V30 69 1 18 64
M  V30 70 1 24 65
M  V30 71 1 30 66
M  V30 72 1 36 67
M  V30 73 1 37 68
M  V30 74 1 40 69
M  V30 75 1 41 70
M  V30 76 1 42 71
M  V30 77 1 43 72
M  V30 END BOND
M  V30 END CTAB
M  END
>  <catalyst_id>  (1) 
YURQYVLOLVWXOA_CTOUCQIYSA_NONE

>  <source_smiles>  (1) 
C=C[C@H]1CN2CC[C@H]1C[C@@H]2[C@H](Nc1c(NCc2cc(C(F)(F)F)cc(C(F)(F)F)c2)c(=O)c1=O)c1ccnc2ccccc12

>  <axial_configuration>  (1) 
none

>  <inchikey>  (1) 
YURQYVLOLVWXOA-CTOUCQIYSA-N

>  <build_source>  (1) 
smiles

>  <rdkit_version>  (1) 
2025.09.6

>  <random_seed>  (1) 
42

>  <generated_at>  (1) 
2026-05-19T12:34:36

$$$$
