catalyst22
     RDKit          3D

  0  0  0  0  0  0  0  0  0  0999 V3000
M  V30 BEGIN CTAB
M  V30 COUNTS 67 71 0 0 0
M  V30 BEGIN ATOM
M  V30 1 C -6.180343 -0.876993 -1.537249 0
M  V30 2 C -5.410841 -1.012359 -0.229454 0
M  V30 3 C -4.253277 -2.021162 -0.326110 0 CFG=1
M  V30 4 C -3.103634 -1.528820 -1.239441 0
M  V30 5 N -1.795817 -1.516879 -0.534193 0
M  V30 6 C -1.499388 -2.897929 -0.082719 0
M  V30 7 C -2.591977 -3.452310 0.841839 0
M  V30 8 C -3.666430 -2.374266 1.062795 0 CFG=1
M  V30 9 C -2.948709 -1.159402 1.673035 0
M  V30 10 C -1.929518 -0.598684 0.654740 0 CFG=1
M  V30 11 C -0.539626 -0.262371 1.311625 0 CFG=1
M  V30 12 N 0.494851 -0.170660 0.263036 0
M  V30 13 C 1.873453 -0.273443 0.412652 0
M  V30 14 S 2.626927 -0.454263 1.892628 0
M  V30 15 N 2.470761 -0.212968 -0.844146 0
M  V30 16 C 3.815565 -0.096101 -1.262438 0
M  V30 17 C 4.074044 -0.383145 -2.610947 0
M  V30 18 C 5.369222 -0.292516 -3.149009 0
M  V30 19 C 5.621534 -0.650318 -4.593568 0
M  V30 20 F 4.559435 -0.375168 -5.401168 0
M  V30 21 F 6.680582 0.014255 -5.132024 0
M  V30 22 F 5.883946 -1.975104 -4.758331 0
M  V30 23 C 6.422538 0.096659 -2.311728 0
M  V30 24 C 6.184223 0.422910 -0.968839 0
M  V30 25 C 7.314723 0.852425 -0.062549 0
M  V30 26 F 8.401598 1.307088 -0.748178 0
M  V30 27 F 7.767277 -0.165400 0.718685 0
M  V30 28 F 6.966491 1.857944 0.785763 0
M  V30 29 C 4.875598 0.322923 -0.459332 0
M  V30 30 C -0.617725 0.988725 2.183615 0
M  V30 31 C -0.561775 0.800718 3.573586 0
M  V30 32 C -0.660061 1.896363 4.405463 0
M  V30 33 N -0.821320 3.155857 3.963708 0
M  V30 34 C -0.864347 3.360539 2.638886 0
M  V30 35 C -1.017077 4.669757 2.203248 0
M  V30 36 C -1.075103 4.998782 0.849272 0
M  V30 37 C -0.977012 3.995148 -0.099983 0
M  V30 38 C -0.824114 2.671000 0.312480 0
M  V30 39 C -0.766641 2.316737 1.685103 0
M  V30 40 H -6.590193 -1.842137 -1.851625 0
M  V30 41 H -5.545670 -0.494838 -2.341975 0
M  V30 42 H -7.015788 -0.180972 -1.410774 0
M  V30 43 H -5.041173 -0.024095 0.066555 0
M  V30 44 H -6.111719 -1.337677 0.548805 0
M  V30 45 H -4.656387 -2.948607 -0.757223 0
M  V30 46 H -3.300526 -0.525574 -1.636240 0
M  V30 47 H -3.031407 -2.178004 -2.121707 0
M  V30 48 H -1.388953 -3.550527 -0.958079 0
M  V30 49 H -0.527214 -2.933669 0.422280 0
M  V30 50 H -2.153323 -3.752043 1.801139 0
M  V30 51 H -3.041244 -4.348789 0.398173 0
M  V30 52 H -4.443482 -2.746551 1.739056 0
M  V30 53 H -3.672496 -0.381407 1.941409 0
M  V30 54 H -2.458331 -1.465684 2.604817 0
M  V30 55 H -2.340717 0.340748 0.263603 0
M  V30 56 H -0.249583 -1.120250 1.931825 0
M  V30 57 H 0.117246 -0.483348 -0.624268 0
M  V30 58 H 1.814394 -0.334246 -1.602891 0
M  V30 59 H 3.261892 -0.701680 -3.264252 0
M  V30 60 H 7.436318 0.158521 -2.711194 0
M  V30 61 H 4.719450 0.621745 0.572334 0
M  V30 62 H -0.430903 -0.185039 4.009352 0
M  V30 63 H -0.611314 1.786721 5.484973 0
M  V30 64 H -1.089921 5.461449 2.945892 0
M  V30 65 H -1.191257 6.035642 0.546338 0
M  V30 66 H -1.013596 4.237077 -1.158797 0
M  V30 67 H -0.742135 1.915664 -0.462809 0
M  V30 END ATOM
M  V30 BEGIN BOND
M  V30 1 1 1 2
M  V30 2 1 2 3
M  V30 3 1 3 4
M  V30 4 1 4 5
M  V30 5 1 5 6
M  V30 6 1 6 7
M  V30 7 1 7 8
M  V30 8 1 8 9
M  V30 9 1 9 10
M  V30 10 1 10 11
M  V30 11 1 11 12
M  V30 12 1 12 13
M  V30 13 2 13 14
M  V30 14 1 13 15
M  V30 15 1 15 16
M  V30 16 2 16 17
M  V30 17 1 17 18
M  V30 18 1 18 19
M  V30 19 1 19 20
M  V30 20 1 19 21
M  V30 21 1 19 22
M  V30 22 2 18 23
M  V30 23 1 23 24
M  V30 24 1 24 25
M  V30 25 1 25 26
M  V30 26 1 25 27
M  V30 27 1 25 28
M  V30 28 2 24 29
M  V30 29 1 11 30
M  V30 30 2 30 31
M  V30 31 1 31 32
M  V30 32 2 32 33
M  V30 33 1 33 34
M  V30 34 2 34 35
M  V30 35 1 35 36
M  V30 36 2 36 37
M  V30 37 1 37 38
M  V30 38 2 38 39
M  V30 39 1 8 3
M  V30 40 1 29 16
M  V30 41 1 39 30
M  V30 42 1 10 5
M  V30 43 1 39 34
M  V30 44 1 1 40
M  V30 45 1 1 41
M  V30 46 1 1 42
M  V30 47 1 2 43
M  V30 48 1 2 44
M  V30 49 1 3 45 CFG=3
M  V30 50 1 4 46
M  V30 51 1 4 47
M  V30 52 1 6 48
M  V30 53 1 6 49
M  V30 54 1 7 50
M  V30 55 1 7 51
M  V30 56 1 8 52 CFG=1
M  V30 57 1 9 53
M  V30 58 1 9 54
M  V30 59 1 10 55 CFG=3
M  V30 60 1 11 56 CFG=1
M  V30 61 1 12 57
M  V30 62 1 15 58
M  V30 63 1 17 59
M  V30 64 1 23 60
M  V30 65 1 29 61
M  V30 66 1 31 62
M  V30 67 1 32 63
M  V30 68 1 35 64
M  V30 69 1 36 65
M  V30 70 1 37 66
M  V30 71 1 38 67
M  V30 END BOND
M  V30 END CTAB
M  END
>  <catalyst_id>  (1) 
BUYRGAKCTMVPKH_SEMUBUJISA_NONE

>  <source_smiles>  (1) 
CC[C@H]1CN2CC[C@H]1C[C@H]2[C@@H](NC(=S)Nc1cc(C(F)(F)F)cc(C(F)(F)F)c1)c1ccnc2ccccc12

>  <axial_configuration>  (1) 
none

>  <inchikey>  (1) 
BUYRGAKCTMVPKH-SEMUBUJISA-N

>  <build_source>  (1) 
smiles

>  <rdkit_version>  (1) 
2025.09.6

>  <random_seed>  (1) 
42

>  <generated_at>  (1) 
2026-05-19T12:37:12

$$$$
