catalyst426
     RDKit          3D

  0  0  0  0  0  0  0  0  0  0999 V3000
M  V30 BEGIN CTAB
M  V30 COUNTS 62 65 0 0 0
M  V30 BEGIN ATOM
M  V30 1 C -2.341078 -2.957209 -1.497810 0
M  V30 2 C -2.637420 -2.519712 -0.050494 0
M  V30 3 C -4.115084 -2.896670 0.200922 0
M  V30 4 C -1.660656 -3.111554 0.995316 0 CFG=2
M  V30 5 C -2.104309 -2.453010 2.317112 0
M  V30 6 C -2.513319 -1.038893 1.875042 0
M  V30 7 C -2.243271 -1.047531 0.332232 0 CFG=2
M  V30 8 C -3.025889 0.058750 -0.395776 0
M  V30 9 N -2.843694 1.410995 0.147625 0
M  V30 10 C -3.928378 2.306266 -0.274847 0
M  V30 11 C -3.403762 3.678417 0.105803 0
M  V30 12 C -1.892216 3.562457 -0.026173 0
M  V30 13 C -1.623545 2.087499 -0.302723 0
M  V30 14 C -0.680818 -1.040502 0.199392 0 CFG=2
M  V30 15 N -0.166060 -0.715425 -1.127732 0
M  V30 16 C 1.084691 -0.296856 -1.495800 0
M  V30 17 S 1.279017 0.078093 -3.110608 0
M  V30 18 N 2.011209 -0.269479 -0.484786 0
M  V30 19 C 3.292010 0.318117 -0.402304 0
M  V30 20 C 3.731895 1.370166 -1.205916 0
M  V30 21 C 5.017082 1.919989 -1.047029 0
M  V30 22 C 5.477571 3.038891 -1.951918 0
M  V30 23 F 4.485226 3.918289 -2.260708 0
M  V30 24 F 5.962004 2.580724 -3.137573 0
M  V30 25 F 6.476518 3.786786 -1.404098 0
M  V30 26 C 5.865828 1.398644 -0.059323 0
M  V30 27 C 5.432241 0.367033 0.784616 0
M  V30 28 C 6.345906 -0.198183 1.845225 0
M  V30 29 F 5.670395 -0.680254 2.925490 0
M  V30 30 F 7.097641 -1.232444 1.380682 0
M  V30 31 F 7.225600 0.718174 2.334842 0
M  V30 32 C 4.142991 -0.161280 0.602576 0
M  V30 33 C -0.300780 -2.481677 0.621819 0
M  V30 34 H -1.291334 -2.906072 -1.787639 0
M  V30 35 H -2.908408 -2.348793 -2.210591 0
M  V30 36 H -2.637138 -4.002662 -1.647394 0
M  V30 37 H -4.763771 -2.454799 -0.564115 0
M  V30 38 H -4.243196 -3.984505 0.153116 0
M  V30 39 H -4.509638 -2.575943 1.167038 0
M  V30 40 H -1.628577 -4.202428 1.047960 0
M  V30 41 H -1.304290 -2.429415 3.064523 0
M  V30 42 H -2.953087 -2.981684 2.763616 0
M  V30 43 H -3.566204 -0.848802 2.111095 0
M  V30 44 H -1.927443 -0.274613 2.398184 0
M  V30 45 H -4.090439 -0.190411 -0.294782 0
M  V30 46 H -2.827035 0.038836 -1.474154 0
M  V30 47 H -4.870121 2.083076 0.236688 0
M  V30 48 H -4.095054 2.254631 -1.358679 0
M  V30 49 H -3.667406 3.916993 1.143242 0
M  V30 50 H -3.812984 4.465916 -0.534507 0
M  V30 51 H -1.511856 4.189549 -0.839353 0
M  V30 52 H -1.408746 3.886176 0.902552 0
M  V30 53 H -0.735335 1.760413 0.242008 0
M  V30 54 H -1.453785 1.946119 -1.377180 0
M  V30 55 H -0.234475 -0.328396 0.902796 0
M  V30 56 H -0.812751 -0.746385 -1.908177 0
M  V30 57 H 1.792461 -0.901732 0.271686 0
M  V30 58 H 3.080544 1.816790 -1.951791 0
M  V30 59 H 6.869829 1.809469 0.061503 0
M  V30 60 H 3.815134 -0.972606 1.252064 0
M  V30 61 H 0.391839 -2.478090 1.471074 0
M  V30 62 H 0.185723 -3.039239 -0.185820 0
M  V30 END ATOM
M  V30 BEGIN BOND
M  V30 1 1 1 2
M  V30 2 1 2 3
M  V30 3 1 2 4
M  V30 4 1 4 5
M  V30 5 1 5 6
M  V30 6 1 6 7
M  V30 7 1 7 8 CFG=3
M  V30 8 1 8 9
M  V30 9 1 9 10
M  V30 10 1 10 11
M  V30 11 1 11 12
M  V30 12 1 12 13
M  V30 13 1 7 14
M  V30 14 1 14 15
M  V30 15 1 15 16
M  V30 16 2 16 17
M  V30 17 1 16 18
M  V30 18 1 18 19
M  V30 19 2 19 20
M  V30 20 1 20 21
M  V30 21 1 21 22
M  V30 22 1 22 23
M  V30 23 1 22 24
M  V30 24 1 22 25
M  V30 25 2 21 26
M  V30 26 1 26 27
M  V30 27 1 27 28
M  V30 28 1 28 29
M  V30 29 1 28 30
M  V30 30 1 28 31
M  V30 31 2 27 32
M  V30 32 1 14 33
M  V30 33 1 7 2
M  V30 34 1 13 9
M  V30 35 1 32 19
M  V30 36 1 33 4
M  V30 37 1 1 34
M  V30 38 1 1 35
M  V30 39 1 1 36
M  V30 40 1 3 37
M  V30 41 1 3 38
M  V30 42 1 3 39
M  V30 43 1 4 40 CFG=1
M  V30 44 1 5 41
M  V30 45 1 5 42
M  V30 46 1 6 43
M  V30 47 1 6 44
M  V30 48 1 8 45
M  V30 49 1 8 46
M  V30 50 1 10 47
M  V30 51 1 10 48
M  V30 52 1 11 49
M  V30 53 1 11 50
M  V30 54 1 12 51
M  V30 55 1 12 52
M  V30 56 1 13 53
M  V30 57 1 13 54
M  V30 58 1 14 55 CFG=1
M  V30 59 1 15 56
M  V30 60 1 18 57
M  V30 61 1 20 58
M  V30 62 1 26 59
M  V30 63 1 32 60
M  V30 64 1 33 61
M  V30 65 1 33 62
M  V30 END BOND
M  V30 END CTAB
M  END
>  <catalyst_id>  (1) 
ZARHOJICULDWFE_JOIFBTJTSA_NONE

>  <source_smiles>  (1) 
CC1(C)[C@@H]2CC[C@@]1(CN1CCCC1)C(NC(=S)Nc1cc(C(F)(F)F)cc(C(F)(F)F)c1)C2

>  <axial_configuration>  (1) 
none

>  <inchikey>  (1) 
ZARHOJICULDWFE-JOIFBTJTSA-N

>  <build_source>  (1) 
smiles

>  <rdkit_version>  (1) 
2025.09.6

>  <random_seed>  (1) 
42

>  <generated_at>  (1) 
2026-05-19T12:34:51

$$$$
