catalyst139
     RDKit          3D

  0  0  0  0  0  0  0  0  0  0999 V3000
M  V30 BEGIN CTAB
M  V30 COUNTS 69 73 0 0 0
M  V30 BEGIN ATOM
M  V30 1 C -4.295337 -3.712735 0.427785 0
M  V30 2 C -3.614361 -3.846369 1.573260 0
M  V30 3 C -2.121529 -3.740572 1.811270 0 CFG=1
M  V30 4 C -1.181391 -3.680774 0.573149 0
M  V30 5 N -0.350664 -2.445541 0.552315 0
M  V30 6 C 0.518353 -2.451412 1.751079 0
M  V30 7 C -0.293505 -2.576485 3.048148 0
M  V30 8 C -1.796343 -2.526331 2.720256 0 CFG=1
M  V30 9 C -2.035529 -1.213201 1.951785 0
M  V30 10 C -1.285549 -1.263821 0.599907 0 CFG=1
M  V30 11 C -0.572281 0.104665 0.258126 0 CFG=1
M  V30 12 N 0.412271 -0.133101 -0.820189 0
M  V30 13 C 1.452899 0.644195 -1.051524 0
M  V30 14 C 2.552205 0.625970 -1.876962 0
M  V30 15 N 3.011297 -0.197677 -2.801251 0
M  V30 16 C 4.203743 -0.043627 -3.649708 0
M  V30 17 C 5.479748 -0.004496 -2.799471 0
M  V30 18 C 4.084172 1.198009 -4.542005 0
M  V30 19 C 4.280393 -1.284447 -4.564489 0
M  V30 20 C 3.035010 1.926502 -1.339640 0
M  V30 21 O 3.937380 2.715556 -1.485864 0
M  V30 22 C 1.881200 1.912634 -0.412740 0
M  V30 23 O 1.554027 2.630205 0.501176 0
M  V30 24 C -1.589281 1.155586 -0.184851 0
M  V30 25 C -2.194066 1.002497 -1.444528 0
M  V30 26 C -3.162908 1.898133 -1.841783 0
M  V30 27 N -3.581419 2.924191 -1.081733 0
M  V30 28 C -3.005327 3.101163 0.116295 0
M  V30 29 C -3.449091 4.169788 0.878906 0
M  V30 30 C -2.909988 4.454142 2.133273 0
M  V30 31 C -1.888024 3.667201 2.643153 0
M  V30 32 O -1.417555 4.047697 3.868770 0
M  V30 33 C -0.131094 3.556597 4.229892 0
M  V30 34 C -1.443144 2.570522 1.902591 0
M  V30 35 C -1.988408 2.256643 0.627948 0
M  V30 36 H -5.377221 -3.819214 0.420876 0
M  V30 37 H -3.828274 -3.485778 -0.523023 0
M  V30 38 H -4.196902 -4.063671 2.469983 0
M  V30 39 H -1.851498 -4.651980 2.364692 0
M  V30 40 H -0.512156 -4.551951 0.588577 0
M  V30 41 H -1.715472 -3.766158 -0.377566 0
M  V30 42 H 1.232867 -3.281235 1.680945 0
M  V30 43 H 1.135482 -1.545852 1.778802 0
M  V30 44 H -0.050555 -3.517379 3.556188 0
M  V30 45 H -0.028242 -1.761824 3.732574 0
M  V30 46 H -2.384740 -2.546622 3.644642 0
M  V30 47 H -3.106279 -1.057800 1.776142 0
M  V30 48 H -1.692711 -0.375994 2.570229 0
M  V30 49 H -2.028496 -1.440318 -0.190765 0
M  V30 50 H -0.011562 0.421781 1.140769 0
M  V30 51 H 0.474849 -1.137055 -1.021595 0
M  V30 52 H 2.449247 -1.015268 -3.038971 0
M  V30 53 H 6.374353 -0.003326 -3.432740 0
M  V30 54 H 5.539408 -0.875849 -2.136926 0
M  V30 55 H 5.532905 0.886233 -2.168980 0
M  V30 56 H 4.918938 1.255562 -5.249900 0
M  V30 57 H 4.088160 2.126052 -3.964762 0
M  V30 58 H 3.153821 1.179499 -5.121545 0
M  V30 59 H 3.386535 -1.368736 -5.193950 0
M  V30 60 H 5.152913 -1.240030 -5.225995 0
M  V30 61 H 4.351786 -2.206656 -3.975650 0
M  V30 62 H -1.910867 0.192051 -2.109617 0
M  V30 63 H -3.648039 1.808415 -2.809222 0
M  V30 64 H -4.236229 4.807371 0.482922 0
M  V30 65 H -3.278445 5.305097 2.699836 0
M  V30 66 H 0.608992 3.751234 3.446050 0
M  V30 67 H 0.188802 4.089954 5.130237 0
M  V30 68 H -0.177050 2.490449 4.474086 0
M  V30 69 H -0.650225 1.957690 2.311312 0
M  V30 END ATOM
M  V30 BEGIN BOND
M  V30 1 2 1 2
M  V30 2 1 2 3
M  V30 3 1 3 4
M  V30 4 1 4 5
M  V30 5 1 5 6
M  V30 6 1 6 7
M  V30 7 1 7 8
M  V30 8 1 8 9
M  V30 9 1 9 10
M  V30 10 1 10 11
M  V30 11 1 11 12
M  V30 12 1 12 13
M  V30 13 2 13 14
M  V30 14 1 14 15
M  V30 15 1 15 16
M  V30 16 1 16 17
M  V30 17 1 16 18
M  V30 18 1 16 19
M  V30 19 1 14 20
M  V30 20 2 20 21
M  V30 21 1 20 22
M  V30 22 2 22 23
M  V30 23 1 11 24
M  V30 24 2 24 25
M  V30 25 1 25 26
M  V30 26 2 26 27
M  V30 27 1 27 28
M  V30 28 2 28 29
M  V30 29 1 29 30
M  V30 30 2 30 31
M  V30 31 1 31 32
M  V30 32 1 32 33
M  V30 33 1 31 34
M  V30 34 2 34 35
M  V30 35 1 8 3
M  V30 36 1 22 13
M  V30 37 1 35 24
M  V30 38 1 10 5
M  V30 39 1 35 28
M  V30 40 1 1 36
M  V30 41 1 1 37
M  V30 42 1 2 38
M  V30 43 1 3 39 CFG=1
M  V30 44 1 4 40
M  V30 45 1 4 41
M  V30 46 1 6 42
M  V30 47 1 6 43
M  V30 48 1 7 44
M  V30 49 1 7 45
M  V30 50 1 8 46 CFG=1
M  V30 51 1 9 47
M  V30 52 1 9 48
M  V30 53 1 10 49 CFG=3
M  V30 54 1 11 50 CFG=1
M  V30 55 1 12 51
M  V30 56 1 15 52
M  V30 57 1 17 53
M  V30 58 1 17 54
M  V30 59 1 17 55
M  V30 60 1 18 56
M  V30 61 1 18 57
M  V30 62 1 18 58
M  V30 63 1 19 59
M  V30 64 1 19 60
M  V30 65 1 19 61
M  V30 66 1 25 62
M  V30 67 1 26 63
M  V30 68 1 29 64
M  V30 69 1 30 65
M  V30 70 1 33 66
M  V30 71 1 33 67
M  V30 72 1 33 68
M  V30 73 1 34 69
M  V30 END BOND
M  V30 END CTAB
M  END
>  <catalyst_id>  (1) 
JSNJKODRHCIIJI_DODAUVCRSA_NONE

>  <source_smiles>  (1) 
C=C[C@H]1CN2CC[C@H]1C[C@H]2[C@@H](Nc1c(NC(C)(C)C)c(=O)c1=O)c1ccnc2ccc(OC)cc12

>  <axial_configuration>  (1) 
none

>  <inchikey>  (1) 
JSNJKODRHCIIJI-DODAUVCRSA-N

>  <build_source>  (1) 
smiles

>  <rdkit_version>  (1) 
2025.09.6

>  <random_seed>  (1) 
42

>  <generated_at>  (1) 
2026-05-19T12:37:16

$$$$
