catalyst145
     RDKit          3D

  0  0  0  0  0  0  0  0  0  0999 V3000
M  V30 BEGIN CTAB
M  V30 COUNTS 85 92 0 0 0
M  V30 BEGIN ATOM
M  V30 1 O 4.563845 0.626446 -4.259508 0
M  V30 2 C 3.742110 -0.067023 -3.712580 0
M  V30 3 C 3.331873 -0.433569 -2.334291 0
M  V30 4 N 3.802943 -0.062014 -1.162494 0
M  V30 5 C 4.752808 1.025835 -0.988645 0
M  V30 6 C 5.074115 1.168568 0.482034 0
M  V30 7 C 6.191465 0.522760 1.031297 0
M  V30 8 C 6.477156 0.611766 2.402658 0
M  V30 9 C 7.697873 -0.068533 2.977999 0
M  V30 10 F 7.530140 -0.449753 4.274912 0
M  V30 11 F 8.050729 -1.196354 2.301652 0
M  V30 12 F 8.793042 0.738719 2.962486 0
M  V30 13 C 5.626720 1.368773 3.225168 0
M  V30 14 C 4.497522 2.018647 2.699495 0
M  V30 15 C 3.573696 2.794298 3.609466 0
M  V30 16 F 2.814582 3.714672 2.955100 0
M  V30 17 F 2.700716 1.982946 4.268533 0
M  V30 18 F 4.242893 3.483010 4.575585 0
M  V30 19 C 4.225997 1.901820 1.327450 0
M  V30 20 C 2.323171 -1.242112 -2.794160 0
M  V30 21 N 1.386619 -1.993150 -2.247590 0
M  V30 22 C 0.133254 -2.347814 -2.936916 0 CFG=1
M  V30 23 C 0.294785 -3.639627 -3.744183 0
M  V30 24 C -1.024038 -4.035671 -4.408082 0
M  V30 25 C -2.168182 -4.149453 -3.401572 0
M  V30 26 C -2.320275 -2.885872 -2.550492 0
M  V30 27 C -0.994323 -2.534129 -1.861167 0 CFG=2
M  V30 28 N -1.024349 -1.397778 -0.914504 0
M  V30 29 C -1.463646 -0.098168 -1.461321 0
M  V30 30 C -2.894178 0.303898 -1.140557 0
M  V30 31 C -3.837734 0.381623 -2.170039 0
M  V30 32 C -5.169683 0.665249 -1.885222 0
M  V30 33 C -5.601359 0.842878 -0.566177 0
M  V30 34 C -6.963262 1.071590 -0.305693 0
M  V30 35 C -7.432365 1.214918 0.998081 0
M  V30 36 C -6.544985 1.122563 2.059673 0
M  V30 37 C -5.187569 0.902154 1.813885 0
M  V30 38 C -4.669027 0.777945 0.500503 0
M  V30 39 C -3.283258 0.570955 0.201290 0
M  V30 40 C -2.226938 0.551771 1.260188 0
M  V30 41 C -1.443456 -0.624485 1.396873 0
M  V30 42 C -0.460073 -0.707372 2.388068 0
M  V30 43 C -0.223685 0.372597 3.232121 0
M  V30 44 C -0.926147 1.573272 3.077072 0
M  V30 45 C -0.622305 2.666042 3.906226 0
M  V30 46 C -1.267405 3.890358 3.748837 0
M  V30 47 C -2.221370 4.039325 2.753505 0
M  V30 48 C -2.538801 2.958506 1.927192 0
M  V30 49 C -1.922986 1.690373 2.074115 0
M  V30 50 C -1.599140 -1.752695 0.393065 0
M  V30 51 C 2.638574 -0.925401 -4.210401 0
M  V30 52 O 2.224135 -1.168622 -5.317384 0
M  V30 53 H 3.330827 -0.347002 -0.305414 0
M  V30 54 H 4.332815 1.967421 -1.363719 0
M  V30 55 H 5.672004 0.831582 -1.554705 0
M  V30 56 H 6.843515 -0.065472 0.383858 0
M  V30 57 H 5.843861 1.449653 4.292050 0
M  V30 58 H 3.341097 2.386271 0.911224 0
M  V30 59 H 1.195468 -1.849005 -1.250025 0
M  V30 60 H -0.150182 -1.536928 -3.620438 0
M  V30 61 H 1.065413 -3.520041 -4.513707 0
M  V30 62 H 0.635952 -4.452795 -3.090470 0
M  V30 63 H -0.899516 -4.990789 -4.930761 0
M  V30 64 H -1.284568 -3.288765 -5.168268 0
M  V30 65 H -1.987540 -5.009128 -2.744367 0
M  V30 66 H -3.105695 -4.348076 -3.933271 0
M  V30 67 H -2.644264 -2.067201 -3.201354 0
M  V30 68 H -3.111292 -3.048731 -1.810171 0
M  V30 69 H -0.693342 -3.415190 -1.273779 0
M  V30 70 H -0.794955 0.683520 -1.075093 0
M  V30 71 H -1.306506 -0.048870 -2.544639 0
M  V30 72 H -3.545489 0.210876 -3.203477 0
M  V30 73 H -5.879540 0.716013 -2.708593 0
M  V30 74 H -7.677758 1.130972 -1.124322 0
M  V30 75 H -8.489264 1.387261 1.182077 0
M  V30 76 H -6.901430 1.219283 3.081811 0
M  V30 77 H -4.528937 0.821560 2.676592 0
M  V30 78 H 0.141461 -1.606712 2.496043 0
M  V30 79 H 0.547124 0.281257 3.995394 0
M  V30 80 H 0.136557 2.574383 4.681113 0
M  V30 81 H -1.014597 4.726762 4.394665 0
M  V30 82 H -2.720713 4.994202 2.612228 0
M  V30 83 H -3.281184 3.124397 1.149019 0
M  V30 84 H -1.076869 -2.633875 0.788459 0
M  V30 85 H -2.652679 -2.051515 0.320495 0
M  V30 END ATOM
M  V30 BEGIN BOND
M  V30 1 2 1 2
M  V30 2 1 2 3
M  V30 3 1 3 4
M  V30 4 1 4 5
M  V30 5 1 5 6
M  V30 6 2 6 7
M  V30 7 1 7 8
M  V30 8 1 8 9
M  V30 9 1 9 10
M  V30 10 1 9 11
M  V30 11 1 9 12
M  V30 12 2 8 13
M  V30 13 1 13 14
M  V30 14 1 14 15
M  V30 15 1 15 16
M  V30 16 1 15 17
M  V30 17 1 15 18
M  V30 18 2 14 19
M  V30 19 2 3 20
M  V30 20 1 20 21
M  V30 21 1 21 22
M  V30 22 1 22 23
M  V30 23 1 23 24
M  V30 24 1 24 25
M  V30 25 1 25 26
M  V30 26 1 26 27
M  V30 27 1 27 28
M  V30 28 1 28 29
M  V30 29 1 29 30
M  V30 30 2 30 31
M  V30 31 1 31 32
M  V30 32 2 32 33
M  V30 33 1 33 34
M  V30 34 2 34 35
M  V30 35 1 35 36
M  V30 36 2 36 37
M  V30 37 1 37 38
M  V30 38 2 38 39
M  V30 39 1 39 40
M  V30 40 2 40 41
M  V30 41 1 41 42
M  V30 42 2 42 43
M  V30 43 1 43 44
M  V30 44 2 44 45
M  V30 45 1 45 46
M  V30 46 2 46 47
M  V30 47 1 47 48
M  V30 48 2 48 49
M  V30 49 1 41 50
M  V30 50 1 20 51
M  V30 51 2 51 52
M  V30 52 1 51 2
M  V30 53 1 19 6
M  V30 54 1 27 22
M  V30 55 1 50 28
M  V30 56 1 39 30
M  V30 57 1 49 40
M  V30 58 1 38 33
M  V30 59 1 49 44
M  V30 60 1 4 53
M  V30 61 1 5 54
M  V30 62 1 5 55
M  V30 63 1 7 56
M  V30 64 1 13 57
M  V30 65 1 19 58
M  V30 66 1 21 59
M  V30 67 1 22 60 CFG=3
M  V30 68 1 23 61
M  V30 69 1 23 62
M  V30 70 1 24 63
M  V30 71 1 24 64
M  V30 72 1 25 65
M  V30 73 1 25 66
M  V30 74 1 26 67
M  V30 75 1 26 68
M  V30 76 1 27 69 CFG=1
M  V30 77 1 29 70
M  V30 78 1 29 71
M  V30 79 1 31 72
M  V30 80 1 32 73
M  V30 81 1 34 74
M  V30 82 1 35 75
M  V30 83 1 36 76
M  V30 84 1 37 77
M  V30 85 1 42 78
M  V30 86 1 43 79
M  V30 87 1 45 80
M  V30 88 1 46 81
M  V30 89 1 47 82
M  V30 90 1 48 83
M  V30 91 1 50 84
M  V30 92 1 50 85
M  V30 END BOND
M  V30 END CTAB
M  END
>  <catalyst_id>  (1) 
KBTFECYGHDLJOB_LQJZCPKCSA_R

>  <source_smiles>  (1) 
O=c1c(NCc2cc(C(F)(F)F)cc(C(F)(F)F)c2)c(N[C@H]2CCCC[C@@H]2N2Cc3ccc4ccccc4c3-c3c(ccc4ccccc34)C2)c1=O

>  <axial_configuration>  (1) 
R

>  <inchikey>  (1) 
KBTFECYGHDLJOB-LQJZCPKCSA-N

>  <build_source>  (1) 
smiles+axial_bridged

>  <final_biaryl_angle_deg>  (1) 
120.81

>  <n_valid_conformers>  (1) 
11

>  <rdkit_version>  (1) 
2025.09.6

>  <random_seed>  (1) 
42

>  <generated_at>  (1) 
2026-05-19T12:31:51

$$$$
