catalyst100
     RDKit          3D

  0  0  0  0  0  0  0  0  0  0999 V3000
M  V30 BEGIN CTAB
M  V30 COUNTS 79 85 0 0 0
M  V30 BEGIN ATOM
M  V30 1 C -5.532647 0.913993 -1.748944 0
M  V30 2 C -5.176336 1.541996 -0.621048 0
M  V30 3 C -4.065024 2.550564 -0.428266 0 CFG=1
M  V30 4 C -3.147251 2.154039 0.762966 0
M  V30 5 N -1.717236 2.473186 0.513128 0
M  V30 6 C -1.635708 3.891126 0.083741 0
M  V30 7 C -2.323063 4.109969 -1.274542 0
M  V30 8 C -3.146316 2.858348 -1.639136 0 CFG=1
M  V30 9 C -2.150071 1.696662 -1.831199 0
M  V30 10 C -1.198319 1.619729 -0.610852 0 CFG=2
M  V30 11 C -0.838714 0.159261 -0.163717 0 CFG=1
M  V30 12 O -2.001293 -0.684328 -0.152866 0
M  V30 13 C -1.886667 -1.781198 0.751994 0
M  V30 14 C -2.760068 -2.911516 0.256512 0
M  V30 15 C -2.133121 -3.975464 -0.419381 0
M  V30 16 C -2.872512 -5.047444 -0.906063 0
M  V30 17 C -4.252432 -5.071900 -0.730003 0
M  V30 18 C -4.913280 -4.024235 -0.072610 0
M  V30 19 C -6.308440 -4.065876 0.088214 0
M  V30 20 C -6.988607 -3.034143 0.732080 0
M  V30 21 C -6.281103 -1.945217 1.221438 0
M  V30 22 C -4.893327 -1.890241 1.069242 0
M  V30 23 C -4.172582 -2.921983 0.426764 0
M  V30 24 C 0.229655 -0.426970 -1.090355 0
M  V30 25 C -0.169902 -1.191435 -2.196013 0
M  V30 26 C 0.794586 -1.723340 -3.024720 0
M  V30 27 N 2.116000 -1.544188 -2.840904 0
M  V30 28 C 2.515508 -0.796954 -1.801545 0
M  V30 29 C 3.877172 -0.596055 -1.638508 0
M  V30 30 C 4.398059 0.173094 -0.592940 0
M  V30 31 C 3.542809 0.755224 0.333112 0
M  V30 32 N 3.967546 1.566119 1.404998 0
M  V30 33 C 5.206863 1.762457 1.966654 0
M  V30 34 S 5.366426 3.125137 2.925913 0
M  V30 35 N 6.120972 0.760776 1.765001 0
M  V30 36 C 7.518676 0.714169 1.954819 0
M  V30 37 C 8.344789 1.837886 1.995508 0
M  V30 38 C 9.727752 1.697862 2.155227 0
M  V30 39 C 10.298449 0.432100 2.260099 0
M  V30 40 C 9.487704 -0.696894 2.194783 0
M  V30 41 C 8.106658 -0.555843 2.034804 0
M  V30 42 C 2.162891 0.584766 0.167287 0
M  V30 43 C 1.620312 -0.200480 -0.884557 0
M  V30 44 H -5.025636 1.069206 -2.694270 0
M  V30 45 H -6.353406 0.201883 -1.744966 0
M  V30 46 H -5.757368 1.320768 0.274088 0
M  V30 47 H -4.572497 3.488788 -0.158829 0
M  V30 48 H -3.475007 2.699188 1.658554 0
M  V30 49 H -3.253077 1.098374 1.030346 0
M  V30 50 H -0.585839 4.203860 0.025053 0
M  V30 51 H -2.090153 4.535619 0.847046 0
M  V30 52 H -2.971618 4.992419 -1.224535 0
M  V30 53 H -1.572870 4.302424 -2.051175 0
M  V30 54 H -3.718983 3.040986 -2.554322 0
M  V30 55 H -1.555997 1.872227 -2.737000 0
M  V30 56 H -2.691601 0.760712 -1.992197 0
M  V30 57 H -0.246770 2.084764 -0.907980 0
M  V30 58 H -0.451149 0.197065 0.861848 0
M  V30 59 H -0.848035 -2.127566 0.829353 0
M  V30 60 H -2.182485 -1.461290 1.757049 0
M  V30 61 H -1.055215 -3.970426 -0.570522 0
M  V30 62 H -2.374994 -5.863612 -1.423009 0
M  V30 63 H -4.813719 -5.919590 -1.117102 0
M  V30 64 H -6.880267 -4.909644 -0.292217 0
M  V30 65 H -8.067983 -3.081490 0.846751 0
M  V30 66 H -6.804473 -1.133243 1.718785 0
M  V30 67 H -4.378568 -1.014129 1.453255 0
M  V30 68 H -1.219682 -1.378279 -2.406187 0
M  V30 69 H 0.521969 -2.326751 -3.885886 0
M  V30 70 H 4.559905 -1.037515 -2.362262 0
M  V30 71 H 5.471045 0.336653 -0.573527 0
M  V30 72 H 3.265813 2.187412 1.797306 0
M  V30 73 H 5.682954 -0.140902 1.621127 0
M  V30 74 H 7.951800 2.840853 1.872577 0
M  V30 75 H 10.358083 2.583077 2.188654 0
M  V30 76 H 11.373036 0.327385 2.384129 0
M  V30 77 H 9.928332 -1.687696 2.268170 0
M  V30 78 H 7.497183 -1.454646 1.987692 0
M  V30 79 H 1.498465 1.070359 0.878085 0
M  V30 END ATOM
M  V30 BEGIN BOND
M  V30 1 2 1 2
M  V30 2 1 2 3
M  V30 3 1 3 4
M  V30 4 1 4 5
M  V30 5 1 5 6
M  V30 6 1 6 7
M  V30 7 1 7 8
M  V30 8 1 8 9
M  V30 9 1 9 10
M  V30 10 1 10 11
M  V30 11 1 11 12
M  V30 12 1 12 13
M  V30 13 1 13 14
M  V30 14 2 14 15
M  V30 15 1 15 16
M  V30 16 2 16 17
M  V30 17 1 17 18
M  V30 18 2 18 19
M  V30 19 1 19 20
M  V30 20 2 20 21
M  V30 21 1 21 22
M  V30 22 2 22 23
M  V30 23 1 11 24
M  V30 24 2 24 25
M  V30 25 1 25 26
M  V30 26 2 26 27
M  V30 27 1 27 28
M  V30 28 2 28 29
M  V30 29 1 29 30
M  V30 30 2 30 31
M  V30 31 1 31 32
M  V30 32 1 32 33
M  V30 33 2 33 34
M  V30 34 1 33 35
M  V30 35 1 35 36
M  V30 36 2 36 37
M  V30 37 1 37 38
M  V30 38 2 38 39
M  V30 39 1 39 40
M  V30 40 2 40 41
M  V30 41 1 31 42
M  V30 42 2 42 43
M  V30 43 1 8 3
M  V30 44 1 23 14
M  V30 45 1 43 24
M  V30 46 1 10 5
M  V30 47 1 23 18
M  V30 48 1 43 28
M  V30 49 1 41 36
M  V30 50 1 1 44
M  V30 51 1 1 45
M  V30 52 1 2 46
M  V30 53 1 3 47 CFG=1
M  V30 54 1 4 48
M  V30 55 1 4 49
M  V30 56 1 6 50
M  V30 57 1 6 51
M  V30 58 1 7 52
M  V30 59 1 7 53
M  V30 60 1 8 54 CFG=3
M  V30 61 1 9 55
M  V30 62 1 9 56
M  V30 63 1 10 57 CFG=3
M  V30 64 1 11 58 CFG=1
M  V30 65 1 13 59
M  V30 66 1 13 60
M  V30 67 1 15 61
M  V30 68 1 16 62
M  V30 69 1 17 63
M  V30 70 1 19 64
M  V30 71 1 20 65
M  V30 72 1 21 66
M  V30 73 1 22 67
M  V30 74 1 25 68
M  V30 75 1 26 69
M  V30 76 1 29 70
M  V30 77 1 30 71
M  V30 78 1 32 72
M  V30 79 1 35 73
M  V30 80 1 37 74
M  V30 81 1 38 75
M  V30 82 1 39 76
M  V30 83 1 40 77
M  V30 84 1 41 78
M  V30 85 1 42 79
M  V30 END BOND
M  V30 END CTAB
M  END
>  <catalyst_id>  (1) 
IABCVTBGZGPKAU_KXCZUQERSA_NONE

>  <source_smiles>  (1) 
C=C[C@H]1CN2CC[C@H]1C[C@@H]2[C@@H](OCc1cccc2ccccc12)c1ccnc2ccc(NC(=S)Nc3ccccc3)cc12

>  <axial_configuration>  (1) 
none

>  <inchikey>  (1) 
IABCVTBGZGPKAU-KXCZUQERSA-N

>  <build_source>  (1) 
smiles

>  <rdkit_version>  (1) 
2025.09.6

>  <random_seed>  (1) 
42

>  <generated_at>  (1) 
2026-05-19T12:34:06

$$$$
