catalyst346
     RDKit          3D

  0  0  0  0  0  0  0  0  0  0999 V3000
M  V30 BEGIN CTAB
M  V30 COUNTS 72 78 0 0 0
M  V30 BEGIN ATOM
M  V30 1 C -3.142712 -2.629452 3.009098 0
M  V30 2 C -2.675425 -1.312236 2.408276 0
M  V30 3 C -3.436938 -0.914317 1.131516 0 CFG=1
M  V30 4 C -2.957323 0.467274 0.621912 0
M  V30 5 N -2.838567 0.506108 -0.855042 0
M  V30 6 C -4.112447 0.020684 -1.435375 0
M  V30 7 C -4.338076 -1.466493 -1.115026 0
M  V30 8 C -3.325827 -1.915405 -0.042460 0 CFG=1
M  V30 9 C -1.918837 -1.806089 -0.658513 0
M  V30 10 C -1.743245 -0.408475 -1.311343 0 CFG=2
M  V30 11 C -0.285251 0.148616 -1.135195 0 CFG=1
M  V30 12 O 0.631201 -0.858638 -1.638303 0
M  V30 13 C 1.724246 -1.132865 -0.846022 0
M  V30 14 C 2.475196 -0.116103 -0.258456 0
M  V30 15 C 3.576677 -0.407080 0.548766 0
M  V30 16 C 4.290926 0.648636 1.142025 0
M  V30 17 C 5.390370 0.403727 1.959188 0
M  V30 18 C 5.789220 -0.902724 2.191284 0
M  V30 19 C 5.088697 -1.960137 1.602402 0
M  V30 20 C 3.963863 -1.752735 0.762096 0
M  V30 21 C 3.220012 -2.807708 0.122045 0
M  V30 22 C 3.541971 -4.183574 0.255714 0
M  V30 23 C 2.815452 -5.191559 -0.383110 0
M  V30 24 C 1.738423 -4.858638 -1.184842 0
M  V30 25 C 1.389812 -3.519537 -1.338382 0
M  V30 26 C 2.103461 -2.482194 -0.695368 0
M  V30 27 C -0.078339 1.435660 -1.936646 0
M  V30 28 C 0.040598 1.336715 -3.332007 0
M  V30 29 C 0.217529 2.484700 -4.074955 0
M  V30 30 N 0.283053 3.716980 -3.539716 0
M  V30 31 C 0.169622 3.832344 -2.208531 0
M  V30 32 C 0.242254 5.109874 -1.672966 0
M  V30 33 C 0.147281 5.350885 -0.299406 0
M  V30 34 C -0.024561 4.286193 0.571000 0
M  V30 35 O -0.127114 4.363519 1.931770 0
M  V30 36 C -0.093315 5.664805 2.505254 0
M  V30 37 C -0.100821 2.991530 0.049310 0
M  V30 38 C -0.010567 2.728340 -1.341423 0
M  V30 39 H -4.224975 -2.626736 3.171948 0
M  V30 40 H -2.888960 -3.476614 2.365647 0
M  V30 41 H -2.655570 -2.793751 3.975749 0
M  V30 42 H -2.817686 -0.524402 3.158989 0
M  V30 43 H -1.597152 -1.366976 2.221326 0
M  V30 44 H -4.499402 -0.828735 1.401739 0
M  V30 45 H -3.669486 1.237755 0.944720 0
M  V30 46 H -2.006004 0.750250 1.082672 0
M  V30 47 H -4.947499 0.622539 -1.054742 0
M  V30 48 H -4.112307 0.173309 -2.521674 0
M  V30 49 H -5.363905 -1.618509 -0.759566 0
M  V30 50 H -4.214682 -2.071839 -2.021248 0
M  V30 51 H -3.539342 -2.942756 0.265258 0
M  V30 52 H -1.797005 -2.580200 -1.425967 0
M  V30 53 H -1.159505 -1.992635 0.107516 0
M  V30 54 H -1.874050 -0.558285 -2.394011 0
M  V30 55 H -0.107302 0.294536 -0.066304 0
M  V30 56 H 2.217743 0.923006 -0.439376 0
M  V30 57 H 3.990818 1.681288 0.971269 0
M  V30 58 H 5.930546 1.231279 2.410549 0
M  V30 59 H 6.646484 -1.107023 2.827369 0
M  V30 60 H 5.447698 -2.962663 1.816060 0
M  V30 61 H 4.381886 -4.502190 0.866410 0
M  V30 62 H 3.100572 -6.232264 -0.254138 0
M  V30 63 H 1.170491 -5.632706 -1.693059 0
M  V30 64 H 0.545015 -3.282799 -1.981940 0
M  V30 65 H 0.000844 0.375339 -3.834830 0
M  V30 66 H 0.315127 2.442404 -5.155731 0
M  V30 67 H 0.379094 5.950437 -2.350306 0
M  V30 68 H 0.213811 6.376927 0.044764 0
M  V30 69 H -0.203784 5.555494 3.588420 0
M  V30 70 H 0.867995 6.153811 2.316151 0
M  V30 71 H -0.926777 6.277174 2.145396 0
M  V30 72 H -0.233229 2.184904 0.762373 0
M  V30 END ATOM
M  V30 BEGIN BOND
M  V30 1 1 1 2
M  V30 2 1 2 3
M  V30 3 1 3 4
M  V30 4 1 4 5
M  V30 5 1 5 6
M  V30 6 1 6 7
M  V30 7 1 7 8
M  V30 8 1 8 9
M  V30 9 1 9 10
M  V30 10 1 10 11
M  V30 11 1 11 12
M  V30 12 1 12 13
M  V30 13 2 13 14
M  V30 14 1 14 15
M  V30 15 2 15 16
M  V30 16 1 16 17
M  V30 17 2 17 18
M  V30 18 1 18 19
M  V30 19 2 19 20
M  V30 20 1 20 21
M  V30 21 2 21 22
M  V30 22 1 22 23
M  V30 23 2 23 24
M  V30 24 1 24 25
M  V30 25 2 25 26
M  V30 26 1 11 27
M  V30 27 2 27 28
M  V30 28 1 28 29
M  V30 29 2 29 30
M  V30 30 1 30 31
M  V30 31 2 31 32
M  V30 32 1 32 33
M  V30 33 2 33 34
M  V30 34 1 34 35
M  V30 35 1 35 36
M  V30 36 1 34 37
M  V30 37 2 37 38
M  V30 38 1 8 3
M  V30 39 1 26 13
M  V30 40 1 38 27
M  V30 41 1 10 5
M  V30 42 1 20 15
M  V30 43 1 26 21
M  V30 44 1 38 31
M  V30 45 1 1 39
M  V30 46 1 1 40
M  V30 47 1 1 41
M  V30 48 1 2 42
M  V30 49 1 2 43
M  V30 50 1 3 44 CFG=1
M  V30 51 1 4 45
M  V30 52 1 4 46
M  V30 53 1 6 47
M  V30 54 1 6 48
M  V30 55 1 7 49
M  V30 56 1 7 50
M  V30 57 1 8 51 CFG=1
M  V30 58 1 9 52
M  V30 59 1 9 53
M  V30 60 1 10 54 CFG=3
M  V30 61 1 11 55 CFG=1
M  V30 62 1 14 56
M  V30 63 1 16 57
M  V30 64 1 17 58
M  V30 65 1 18 59
M  V30 66 1 19 60
M  V30 67 1 22 61
M  V30 68 1 23 62
M  V30 69 1 24 63
M  V30 70 1 25 64
M  V30 71 1 28 65
M  V30 72 1 29 66
M  V30 73 1 32 67
M  V30 74 1 33 68
M  V30 75 1 36 69
M  V30 76 1 36 70
M  V30 77 1 36 71
M  V30 78 1 37 72
M  V30 END BOND
M  V30 END CTAB
M  END
>  <catalyst_id>  (1) 
TWOVHUYOMTVDRB_SAUGTVQKSA_NONE

>  <source_smiles>  (1) 
CC[C@H]1CN2CC[C@H]1C[C@@H]2[C@@H](Oc1cc2ccccc2c2ccccc12)c1ccnc2ccc(OC)cc12

>  <axial_configuration>  (1) 
none

>  <inchikey>  (1) 
TWOVHUYOMTVDRB-SAUGTVQKSA-N

>  <build_source>  (1) 
smiles

>  <rdkit_version>  (1) 
2025.09.6

>  <random_seed>  (1) 
42

>  <generated_at>  (1) 
2026-05-19T12:29:53

$$$$
