catalyst412
     RDKit          3D

  0  0  0  0  0  0  0  0  0  0999 V3000
M  V30 BEGIN CTAB
M  V30 COUNTS 93 99 0 0 0
M  V30 BEGIN ATOM
M  V30 1 C -6.934989 -2.489154 4.601927 0
M  V30 2 C -6.218631 -2.165523 3.517499 0
M  V30 3 C -5.304883 -3.125471 2.792074 0 CFG=1
M  V30 4 C -5.666755 -3.258103 1.288555 0
M  V30 5 N -4.524777 -2.904184 0.402745 0
M  V30 6 C -3.404781 -3.831571 0.689847 0
M  V30 7 C -2.999089 -3.804915 2.171516 0
M  V30 8 C -3.813739 -2.722117 2.902610 0 CFG=1
M  V30 9 C -3.542640 -1.401949 2.156087 0
M  V30 10 C -4.115100 -1.489526 0.722961 0 CFG=1
M  V30 11 C -3.159142 -0.859411 -0.372310 0 CFG=1
M  V30 12 N -3.593121 -1.363698 -1.692626 0
M  V30 13 C -3.198134 -0.972232 -2.886627 0
M  V30 14 C -2.192250 -0.284648 -3.527447 0
M  V30 15 N -1.042212 0.321963 -3.314022 0
M  V30 16 C 0.039187 -0.087082 -2.499855 0
M  V30 17 C 1.084617 0.816272 -2.266193 0
M  V30 18 C 2.165224 0.463539 -1.450162 0
M  V30 19 C 3.254306 1.448933 -1.226229 0
M  V30 20 O 2.902163 2.588103 -0.929217 0
M  V30 21 N 4.586307 1.007223 -1.362297 0
M  V30 22 C 4.903208 -0.066385 -2.309725 0
M  V30 23 C 5.688433 1.686807 -0.717150 0
M  V30 24 C 5.480061 2.659453 0.272213 0
M  V30 25 C 6.542511 3.300452 0.937843 0
M  V30 26 C 6.252490 4.347513 1.987094 0
M  V30 27 F 5.125145 4.083680 2.705794 0
M  V30 28 F 7.253120 4.467894 2.904210 0
M  V30 29 F 6.081917 5.586825 1.454207 0
M  V30 30 C 7.857358 2.968940 0.595212 0
M  V30 31 C 8.110706 1.998962 -0.381167 0
M  V30 32 C 9.528176 1.607651 -0.727664 0
M  V30 33 F 9.973833 0.570947 0.032609 0
M  V30 34 F 9.667899 1.209906 -2.022789 0
M  V30 35 F 10.421318 2.618886 -0.548580 0
M  V30 36 C 7.023894 1.359410 -1.011311 0
M  V30 37 C 2.184972 -0.774511 -0.799429 0
M  V30 38 C 1.142086 -1.686027 -1.002603 0
M  V30 39 C 1.108728 -3.011849 -0.287294 0
M  V30 40 F 0.919571 -4.058882 -1.135929 0
M  V30 41 F 2.252509 -3.288324 0.396880 0
M  V30 42 F 0.098257 -3.079481 0.623150 0
M  V30 43 C 0.084257 -1.332627 -1.860680 0
M  V30 44 C -2.906036 -0.351731 -4.825815 0
M  V30 45 O -2.769887 0.057178 -5.952051 0
M  V30 46 C -3.914307 -1.209321 -4.169631 0
M  V30 47 O -4.892430 -1.787553 -4.573682 0
M  V30 48 C -3.195641 0.666986 -0.303681 0
M  V30 49 C -4.319328 1.338199 -0.815548 0
M  V30 50 C -4.357041 2.715402 -0.777752 0
M  V30 51 N -3.372558 3.471469 -0.262328 0
M  V30 52 C -2.300559 2.851439 0.252450 0
M  V30 53 C -1.300483 3.648549 0.788966 0
M  V30 54 C -0.149142 3.111732 1.371771 0
M  V30 55 C 0.011164 1.736847 1.429305 0
M  V30 56 O 1.071299 1.067680 1.976127 0
M  V30 57 C 2.048738 1.863119 2.638256 0
M  V30 58 C -0.980124 0.918997 0.880439 0
M  V30 59 C -2.151283 1.444698 0.276587 0
M  V30 60 H -6.898388 -3.482208 5.039302 0
M  V30 61 H -7.578571 -1.756723 5.080415 0
M  V30 62 H -6.301442 -1.153139 3.126487 0
M  V30 63 H -5.415443 -4.120680 3.246287 0
M  V30 64 H -6.535779 -2.642352 1.022645 0
M  V30 65 H -5.974117 -4.290807 1.076007 0
M  V30 66 H -3.692169 -4.850993 0.402877 0
M  V30 67 H -2.541304 -3.589403 0.059060 0
M  V30 68 H -3.177094 -4.785510 2.628927 0
M  V30 69 H -1.926431 -3.597373 2.261933 0
M  V30 70 H -3.496150 -2.648164 3.948754 0
M  V30 71 H -2.462419 -1.227176 2.146321 0
M  V30 72 H -3.994729 -0.556745 2.687292 0
M  V30 73 H -5.042777 -0.899199 0.699113 0
M  V30 74 H -2.151051 -1.243800 -0.214445 0
M  V30 75 H -4.348529 -2.052875 -1.573988 0
M  V30 76 H -0.713255 0.988675 -4.017021 0
M  V30 77 H 1.060661 1.810482 -2.709029 0
M  V30 78 H 5.568696 0.319862 -3.088797 0
M  V30 79 H 4.020963 -0.441886 -2.832617 0
M  V30 80 H 5.375143 -0.895592 -1.773972 0
M  V30 81 H 4.475080 2.941702 0.574481 0
M  V30 82 H 8.689924 3.464601 1.097264 0
M  V30 83 H 7.265827 0.597741 -1.749104 0
M  V30 84 H 2.997683 -1.015070 -0.115564 0
M  V30 85 H -0.716436 -2.053731 -2.019426 0
M  V30 86 H -5.151199 0.793539 -1.252074 0
M  V30 87 H -5.205251 3.265145 -1.175311 0
M  V30 88 H -1.419402 4.729706 0.753062 0
M  V30 89 H 0.594410 3.799044 1.760678 0
M  V30 90 H 2.536588 2.551996 1.943011 0
M  V30 91 H 2.815903 1.189897 3.032684 0
M  V30 92 H 1.609219 2.402594 3.483952 0
M  V30 93 H -0.812553 -0.150936 0.938456 0
M  V30 END ATOM
M  V30 BEGIN BOND
M  V30 1 2 1 2
M  V30 2 1 2 3
M  V30 3 1 3 4
M  V30 4 1 4 5
M  V30 5 1 5 6
M  V30 6 1 6 7
M  V30 7 1 7 8
M  V30 8 1 8 9
M  V30 9 1 9 10
M  V30 10 1 10 11
M  V30 11 1 11 12
M  V30 12 1 12 13
M  V30 13 2 13 14
M  V30 14 1 14 15
M  V30 15 1 15 16
M  V30 16 2 16 17
M  V30 17 1 17 18
M  V30 18 1 18 19
M  V30 19 2 19 20
M  V30 20 1 19 21
M  V30 21 1 21 22
M  V30 22 1 21 23
M  V30 23 2 23 24
M  V30 24 1 24 25
M  V30 25 1 25 26
M  V30 26 1 26 27
M  V30 27 1 26 28
M  V30 28 1 26 29
M  V30 29 2 25 30
M  V30 30 1 30 31
M  V30 31 1 31 32
M  V30 32 1 32 33
M  V30 33 1 32 34
M  V30 34 1 32 35
M  V30 35 2 31 36
M  V30 36 2 18 37
M  V30 37 1 37 38
M  V30 38 1 38 39
M  V30 39 1 39 40
M  V30 40 1 39 41
M  V30 41 1 39 42
M  V30 42 2 38 43
M  V30 43 1 14 44
M  V30 44 2 44 45
M  V30 45 1 44 46
M  V30 46 2 46 47
M  V30 47 1 11 48
M  V30 48 2 48 49
M  V30 49 1 49 50
M  V30 50 2 50 51
M  V30 51 1 51 52
M  V30 52 2 52 53
M  V30 53 1 53 54
M  V30 54 2 54 55
M  V30 55 1 55 56
M  V30 56 1 56 57
M  V30 57 1 55 58
M  V30 58 2 58 59
M  V30 59 1 8 3
M  V30 60 1 46 13
M  V30 61 1 59 48
M  V30 62 1 10 5
M  V30 63 1 43 16
M  V30 64 1 59 52
M  V30 65 1 36 23
M  V30 66 1 1 60
M  V30 67 1 1 61
M  V30 68 1 2 62
M  V30 69 1 3 63 CFG=1
M  V30 70 1 4 64
M  V30 71 1 4 65
M  V30 72 1 6 66
M  V30 73 1 6 67
M  V30 74 1 7 68
M  V30 75 1 7 69
M  V30 76 1 8 70 CFG=1
M  V30 77 1 9 71
M  V30 78 1 9 72
M  V30 79 1 10 73 CFG=1
M  V30 80 1 11 74 CFG=1
M  V30 81 1 12 75
M  V30 82 1 15 76
M  V30 83 1 17 77
M  V30 84 1 22 78
M  V30 85 1 22 79
M  V30 86 1 22 80
M  V30 87 1 24 81
M  V30 88 1 30 82
M  V30 89 1 36 83
M  V30 90 1 37 84
M  V30 91 1 43 85
M  V30 92 1 49 86
M  V30 93 1 50 87
M  V30 94 1 53 88
M  V30 95 1 54 89
M  V30 96 1 57 90
M  V30 97 1 57 91
M  V30 98 1 57 92
M  V30 99 1 58 93
M  V30 END BOND
M  V30 END CTAB
M  END
>  <catalyst_id>  (1) 
YFYFHAQCAPKJIN_DPNVTQIWSA_NONE

>  <source_smiles>  (1) 
C=C[C@H]1CN2CC[C@H]1C[C@H]2[C@@H](Nc1c(Nc2cc(C(=O)N(C)c3cc(C(F)(F)F)cc(C(F)(F)F)c3)cc(C(F)(F)F)c2)c(=O)c1=O)c1ccnc2ccc(OC)cc12

>  <axial_configuration>  (1) 
none

>  <inchikey>  (1) 
YFYFHAQCAPKJIN-DPNVTQIWSA-N

>  <build_source>  (1) 
smiles

>  <rdkit_version>  (1) 
2025.09.6

>  <random_seed>  (1) 
42

>  <generated_at>  (1) 
2026-05-19T12:36:43

$$$$
