catalyst295
     RDKit          3D

  0  0  0  0  0  0  0  0  0  0999 V3000
M  V30 BEGIN CTAB
M  V30 COUNTS 67 70 0 0 0
M  V30 BEGIN ATOM
M  V30 1 C 1.236273 -3.012725 1.743573 0
M  V30 2 O 0.024407 -2.436517 1.271029 0
M  V30 3 C -0.374235 -1.319110 2.075915 0 CFG=1
M  V30 4 O 0.495977 -0.203564 1.894108 0
M  V30 5 C 0.518954 0.280466 0.541069 0 CFG=2
M  V30 6 C 1.561818 1.411399 0.457089 0
M  V30 7 O 2.871799 0.969801 0.840537 0
M  V30 8 C 3.562917 0.287346 -0.203458 0
M  V30 9 C 4.881888 -0.249878 0.298838 0
M  V30 10 C 5.039029 -0.675286 1.626102 0
M  V30 11 C 6.251456 -1.211048 2.064016 0
M  V30 12 C 7.318305 -1.338582 1.177193 0
M  V30 13 C 7.172817 -0.932843 -0.147886 0
M  V30 14 C 5.960359 -0.396174 -0.586422 0
M  V30 15 C -0.878618 0.768020 0.113366 0 CFG=1
M  V30 16 O -0.831858 1.191795 -1.260279 0
M  V30 17 C -1.607801 2.365536 -1.520005 0
M  V30 18 C -0.772998 3.602118 -1.310952 0
M  V30 19 C -1.004715 4.448023 -0.217821 0
M  V30 20 C -0.211381 5.579037 -0.018975 0
M  V30 21 C 0.819373 5.874921 -0.909115 0
M  V30 22 C 1.058812 5.041190 -1.999555 0
M  V30 23 C 0.267084 3.909907 -2.199926 0
M  V30 24 C -1.888379 -0.393888 0.278901 0 CFG=2
M  V30 25 O -3.230354 0.073355 0.015933 0
M  V30 26 C -3.722794 -0.314090 -1.269600 0
M  V30 27 C -4.382586 -1.666709 -1.196583 0
M  V30 28 C -5.590467 -1.825121 -0.501762 0
M  V30 29 C -6.195133 -3.079078 -0.409473 0
M  V30 30 C -5.598894 -4.186194 -1.009872 0
M  V30 31 C -4.397963 -4.040976 -1.702039 0
M  V30 32 C -3.791217 -2.787462 -1.795206 0
M  V30 33 C -1.831643 -0.920488 1.733298 0 CFG=1
M  V30 34 N -2.787687 -2.032525 1.954892 0
M  V30 35 H 2.055273 -2.288975 1.701613 0
M  V30 36 H 1.488015 -3.856396 1.095328 0
M  V30 37 H 1.112282 -3.385348 2.764867 0
M  V30 38 H -0.332766 -1.604273 3.134690 0
M  V30 39 H 0.845164 -0.530483 -0.119962 0
M  V30 40 H 1.292812 2.202906 1.165231 0
M  V30 41 H 1.607800 1.853866 -0.542310 0
M  V30 42 H 3.737179 0.993906 -1.023276 0
M  V30 43 H 2.972228 -0.555897 -0.575245 0
M  V30 44 H 4.212622 -0.580500 2.328465 0
M  V30 45 H 6.361230 -1.526208 3.098121 0
M  V30 46 H 8.262337 -1.754027 1.519007 0
M  V30 47 H 8.003788 -1.034632 -0.840794 0
M  V30 48 H 5.863115 -0.089820 -1.625391 0
M  V30 49 H -1.184691 1.598233 0.764091 0
M  V30 50 H -1.920764 2.327084 -2.569779 0
M  V30 51 H -2.525558 2.389736 -0.921908 0
M  V30 52 H -1.801969 4.230509 0.489625 0
M  V30 53 H -0.395286 6.228911 0.832864 0
M  V30 54 H 1.438216 6.754410 -0.751053 0
M  V30 55 H 1.865297 5.269918 -2.691336 0
M  V30 56 H 0.469458 3.259166 -3.048070 0
M  V30 57 H -1.632381 -1.202542 -0.418766 0
M  V30 58 H -4.474425 0.425194 -1.569706 0
M  V30 59 H -2.935100 -0.282644 -2.031224 0
M  V30 60 H -6.058244 -0.968985 -0.019486 0
M  V30 61 H -7.128957 -3.192984 0.135033 0
M  V30 62 H -6.069043 -5.163340 -0.935560 0
M  V30 63 H -3.932206 -4.905991 -2.167311 0
M  V30 64 H -2.850731 -2.693569 -2.333672 0
M  V30 65 H -2.139060 -0.103547 2.399058 0
M  V30 66 H -2.470878 -2.833264 1.401999 0
M  V30 67 H -3.677301 -1.761072 1.527925 0
M  V30 END ATOM
M  V30 BEGIN BOND
M  V30 1 1 1 2
M  V30 2 1 2 3
M  V30 3 1 3 4
M  V30 4 1 4 5
M  V30 5 1 5 6
M  V30 6 1 6 7
M  V30 7 1 7 8
M  V30 8 1 8 9
M  V30 9 2 9 10
M  V30 10 1 10 11
M  V30 11 2 11 12
M  V30 12 1 12 13
M  V30 13 2 13 14
M  V30 14 1 5 15
M  V30 15 1 15 16
M  V30 16 1 16 17
M  V30 17 1 17 18
M  V30 18 2 18 19
M  V30 19 1 19 20
M  V30 20 2 20 21
M  V30 21 1 21 22
M  V30 22 2 22 23
M  V30 23 1 15 24
M  V30 24 1 24 25
M  V30 25 1 25 26
M  V30 26 1 26 27
M  V30 27 2 27 28
M  V30 28 1 28 29
M  V30 29 2 29 30
M  V30 30 1 30 31
M  V30 31 2 31 32
M  V30 32 1 24 33
M  V30 33 1 33 34
M  V30 34 1 33 3
M  V30 35 1 14 9
M  V30 36 1 23 18
M  V30 37 1 32 27
M  V30 38 1 1 35
M  V30 39 1 1 36
M  V30 40 1 1 37
M  V30 41 1 3 38 CFG=1
M  V30 42 1 5 39 CFG=3
M  V30 43 1 6 40
M  V30 44 1 6 41
M  V30 45 1 8 42
M  V30 46 1 8 43
M  V30 47 1 10 44
M  V30 48 1 11 45
M  V30 49 1 12 46
M  V30 50 1 13 47
M  V30 51 1 14 48
M  V30 52 1 15 49 CFG=1
M  V30 53 1 17 50
M  V30 54 1 17 51
M  V30 55 1 19 52
M  V30 56 1 20 53
M  V30 57 1 21 54
M  V30 58 1 22 55
M  V30 59 1 23 56
M  V30 60 1 24 57 CFG=3
M  V30 61 1 26 58
M  V30 62 1 26 59
M  V30 63 1 28 60
M  V30 64 1 29 61
M  V30 65 1 30 62
M  V30 66 1 31 63
M  V30 67 1 32 64
M  V30 68 1 33 65 CFG=1
M  V30 69 1 34 66
M  V30 70 1 34 67
M  V30 END BOND
M  V30 END CTAB
M  END
>  <catalyst_id>  (1) 
RDCKDAKALUCYOW_FXGKLIOSSA_NONE

>  <source_smiles>  (1) 
CO[C@H]1O[C@H](COCc2ccccc2)[C@@H](OCc2ccccc2)[C@H](OCc2ccccc2)[C@H]1N

>  <axial_configuration>  (1) 
none

>  <inchikey>  (1) 
RDCKDAKALUCYOW-FXGKLIOSSA-N

>  <build_source>  (1) 
smiles

>  <rdkit_version>  (1) 
2025.09.6

>  <random_seed>  (1) 
42

>  <generated_at>  (1) 
2026-05-19T12:34:54

$$$$
