catalyst225
     RDKit          3D

  0  0  0  0  0  0  0  0  0  0999 V3000
M  V30 BEGIN CTAB
M  V30 COUNTS 95 96 0 0 0
M  V30 BEGIN ATOM
M  V30 1 C 2.674909 -4.588030 -0.336032 0
M  V30 2 C 1.661275 -3.451565 -0.155075 0
M  V30 3 C 0.751562 -3.748555 1.042377 0
M  V30 4 C 2.371674 -2.071741 -0.087972 0 CFG=1
M  V30 5 C 1.352269 -0.898498 -0.037877 0
M  V30 6 N 1.078740 -0.502394 1.359406 0
M  V30 7 C 0.010358 0.196426 1.840655 0
M  V30 8 N -0.837248 0.760656 0.936683 0 CHG=1
M  V30 9 C -2.095022 1.502310 1.170929 0
M  V30 10 C -2.725496 2.024055 -0.147788 0 CFG=1
M  V30 11 N -3.014610 0.913375 -1.077259 0
M  V30 12 C -2.304653 0.508745 -2.169168 0
M  V30 13 S -0.731659 0.960259 -2.507422 0
M  V30 14 N -2.899680 -0.400517 -2.995821 0
M  V30 15 C -4.261025 -0.678094 -3.245645 0
M  V30 16 C -4.554361 -1.836280 -3.974097 0
M  V30 17 C -5.880051 -2.179920 -4.295567 0
M  V30 18 C -6.173964 -3.453361 -5.055800 0
M  V30 19 F -7.292332 -3.370958 -5.823544 0
M  V30 20 F -6.359256 -4.510523 -4.221434 0
M  V30 21 F -5.163293 -3.808272 -5.894708 0
M  V30 22 C -6.921238 -1.341583 -3.870701 0
M  V30 23 C -6.646742 -0.163945 -3.160032 0
M  V30 24 C -7.757515 0.775299 -2.748293 0
M  V30 25 F -8.958924 0.155023 -2.607211 0
M  V30 26 F -7.503856 1.377649 -1.552346 0
M  V30 27 F -7.942156 1.779976 -3.643882 0
M  V30 28 C -5.309488 0.164520 -2.871078 0
M  V30 29 C -4.002555 2.882080 0.062951 0
M  V30 30 C -5.093229 2.183751 0.881529 0
M  V30 31 C -3.671297 4.236145 0.699716 0
M  V30 32 N -0.134869 0.274995 3.206181 0
M  V30 33 C 0.740744 -0.466329 4.162691 0
M  V30 34 C -0.000897 -0.431653 5.491711 0
M  V30 35 C -0.721740 0.903276 5.445249 0
M  V30 36 C -1.157060 1.021905 3.986607 0
M  V30 37 N 3.285521 -1.988054 1.067024 0
M  V30 38 C 4.391460 -1.210594 1.275950 0
M  V30 39 S 5.100761 -1.410527 2.772276 0
M  V30 40 N 4.723093 -0.349270 0.265170 0
M  V30 41 C 5.904566 0.394903 0.027785 0
M  V30 42 C 7.148715 0.104365 0.588610 0
M  V30 43 C 8.289269 0.871201 0.278043 0
M  V30 44 C 9.619389 0.540206 0.918878 0
M  V30 45 F 10.684523 0.978296 0.192841 0
M  V30 46 F 9.745128 1.099593 2.152131 0
M  V30 47 F 9.805962 -0.797676 1.086931 0
M  V30 48 C 8.166345 1.951728 -0.607073 0
M  V30 49 C 6.930415 2.254302 -1.193662 0
M  V30 50 C 6.792296 3.399886 -2.169813 0
M  V30 51 F 5.595993 4.041736 -2.046306 0
M  V30 52 F 7.748352 4.354756 -2.023673 0
M  V30 53 F 6.860358 2.982420 -3.461905 0
M  V30 54 C 5.813733 1.455438 -0.882684 0
M  V30 55 Cl 0.000000 0.000000 0.000000 0 CHG=-1
M  V30 56 H 3.310944 -4.709486 0.546836 0
M  V30 57 H 2.158097 -5.538771 -0.508361 0
M  V30 58 H 3.319871 -4.397946 -1.200827 0
M  V30 59 H 1.022553 -3.450764 -1.049608 0
M  V30 60 H 0.267551 -4.724673 0.921176 0
M  V30 61 H 1.304923 -3.769163 1.985978 0
M  V30 62 H -0.045101 -3.004596 1.130137 0
M  V30 63 H 2.967249 -1.961374 -1.002583 0
M  V30 64 H 0.419860 -1.186751 -0.529718 0
M  V30 65 H 1.780751 -0.021172 -0.531518 0
M  V30 66 H 1.780725 -0.806603 2.024296 0
M  V30 67 H -0.571823 0.676867 -0.038709 0
M  V30 68 H -1.864147 2.365316 1.795005 0
M  V30 69 H -2.786645 0.817804 1.668533 0
M  V30 70 H -1.982978 2.667932 -0.633320 0
M  V30 71 H -3.813609 0.333069 -0.847861 0
M  V30 72 H -2.250009 -0.845672 -3.639591 0
M  V30 73 H -3.750156 -2.498076 -4.297130 0
M  V30 74 H -7.954345 -1.598852 -4.113295 0
M  V30 75 H -5.115087 1.124614 -2.398658 0
M  V30 76 H -4.426310 3.094681 -0.928353 0
M  V30 77 H -5.379601 1.225279 0.437227 0
M  V30 78 H -4.773948 2.003233 1.913626 0
M  V30 79 H -5.993877 2.806308 0.923842 0
M  V30 80 H -4.559469 4.876117 0.720918 0
M  V30 81 H -3.317589 4.127320 1.729357 0
M  V30 82 H -2.900283 4.759260 0.124998 0
M  V30 83 H 1.697314 0.062302 4.226142 0
M  V30 84 H 0.888005 -1.498129 3.830745 0
M  V30 85 H 0.671726 -0.526404 6.348454 0
M  V30 86 H -0.731471 -1.247984 5.532847 0
M  V30 87 H -1.564544 0.961138 6.139524 0
M  V30 88 H -0.020194 1.710189 5.689337 0
M  V30 89 H -2.128999 0.544243 3.836055 0
M  V30 90 H -1.168317 2.074661 3.699597 0
M  V30 91 H 3.201064 -2.710993 1.778066 0
M  V30 92 H 3.984225 -0.142324 -0.386435 0
M  V30 93 H 7.285179 -0.745626 1.250869 0
M  V30 94 H 9.044847 2.555686 -0.845218 0
M  V30 95 H 4.860420 1.697103 -1.350840 0
M  V30 END ATOM
M  V30 BEGIN BOND
M  V30 1 1 1 2
M  V30 2 1 2 3
M  V30 3 1 2 4
M  V30 4 1 4 5
M  V30 5 1 5 6
M  V30 6 1 6 7
M  V30 7 2 7 8
M  V30 8 1 8 9
M  V30 9 1 9 10
M  V30 10 1 10 11
M  V30 11 1 11 12
M  V30 12 2 12 13
M  V30 13 1 12 14
M  V30 14 1 14 15
M  V30 15 2 15 16
M  V30 16 1 16 17
M  V30 17 1 17 18
M  V30 18 1 18 19
M  V30 19 1 18 20
M  V30 20 1 18 21
M  V30 21 2 17 22
M  V30 22 1 22 23
M  V30 23 1 23 24
M  V30 24 1 24 25
M  V30 25 1 24 26
M  V30 26 1 24 27
M  V30 27 2 23 28
M  V30 28 1 10 29
M  V30 29 1 29 30
M  V30 30 1 29 31
M  V30 31 1 7 32
M  V30 32 1 32 33
M  V30 33 1 33 34
M  V30 34 1 34 35
M  V30 35 1 35 36
M  V30 36 1 4 37
M  V30 37 1 37 38
M  V30 38 2 38 39
M  V30 39 1 38 40
M  V30 40 1 40 41
M  V30 41 2 41 42
M  V30 42 1 42 43
M  V30 43 1 43 44
M  V30 44 1 44 45
M  V30 45 1 44 46
M  V30 46 1 44 47
M  V30 47 2 43 48
M  V30 48 1 48 49
M  V30 49 1 49 50
M  V30 50 1 50 51
M  V30 51 1 50 52
M  V30 52 1 50 53
M  V30 53 2 49 54
M  V30 54 1 28 15
M  V30 55 1 36 32
M  V30 56 1 54 41
M  V30 57 1 1 56
M  V30 58 1 1 57
M  V30 59 1 1 58
M  V30 60 1 2 59
M  V30 61 1 3 60
M  V30 62 1 3 61
M  V30 63 1 3 62
M  V30 64 1 4 63 CFG=3
M  V30 65 1 5 64
M  V30 66 1 5 65
M  V30 67 1 6 66
M  V30 68 1 8 67
M  V30 69 1 9 68
M  V30 70 1 9 69
M  V30 71 1 10 70 CFG=3
M  V30 72 1 11 71
M  V30 73 1 14 72
M  V30 74 1 16 73
M  V30 75 1 22 74
M  V30 76 1 28 75
M  V30 77 1 29 76
M  V30 78 1 30 77
M  V30 79 1 30 78
M  V30 80 1 30 79
M  V30 81 1 31 80
M  V30 82 1 31 81
M  V30 83 1 31 82
M  V30 84 1 33 83
M  V30 85 1 33 84
M  V30 86 1 34 85
M  V30 87 1 34 86
M  V30 88 1 35 87
M  V30 89 1 35 88
M  V30 90 1 36 89
M  V30 91 1 36 90
M  V30 92 1 37 91
M  V30 93 1 40 92
M  V30 94 1 42 93
M  V30 95 1 48 94
M  V30 96 1 54 95
M  V30 END BOND
M  V30 END CTAB
M  END
>  <catalyst_id>  (1) 
NQRGZCMDBFBAHT_JUJAXGASSA_NONE

>  <source_smiles>  (1) 
CC(C)[C@@H](CNC(=[NH+]C[C@@H](NC(=S)Nc1cc(C(F)(F)F)cc(C(F)(F)F)c1)C(C)C)N1CCCC1)NC(=S)Nc1cc(C(F)(F)F)cc(C(F)(F)F)c1.[Cl-]

>  <axial_configuration>  (1) 
none

>  <inchikey>  (1) 
NQRGZCMDBFBAHT-JUJAXGASSA-N

>  <build_source>  (1) 
smiles

>  <rdkit_version>  (1) 
2025.09.6

>  <random_seed>  (1) 
42

>  <generated_at>  (1) 
2026-05-19T12:31:58

$$$$
