catalyst226
     RDKit          3D

  0  0  0  0  0  0  0  0  0  0999 V3000
M  V30 BEGIN CTAB
M  V30 COUNTS 29 31 0 0 0
M  V30 BEGIN ATOM
M  V30 1 C 2.436591 1.284243 -0.608395 0
M  V30 2 C 2.769693 -0.203309 -0.458333 0
M  V30 3 C 4.047482 -0.365290 0.371056 0
M  V30 4 C 1.618666 -1.045812 0.135493 0 CFG=2
M  V30 5 C 0.326420 -1.058878 -0.746535 0
M  V30 6 N -0.549725 -0.291575 0.082446 0
M  V30 7 C 0.010184 -0.128548 1.313014 0
M  V30 8 N 1.235745 -0.516166 1.505076 0
M  V30 9 S -1.098512 0.563013 2.474780 0
M  V30 10 C -2.404975 0.480803 1.239120 0
M  V30 11 C -3.737299 0.821224 1.395943 0
M  V30 12 C -4.587976 0.644577 0.304092 0
M  V30 13 C -4.097772 0.133624 -0.909124 0
M  V30 14 C -2.747437 -0.207906 -1.053312 0
M  V30 15 C -1.895758 -0.032743 0.023006 0
M  V30 16 H 1.556416 1.437666 -1.239689 0
M  V30 17 H 2.248455 1.756990 0.361089 0
M  V30 18 H 3.270525 1.816887 -1.078792 0
M  V30 19 H 2.982066 -0.596366 -1.461464 0
M  V30 20 H 3.928169 0.041491 1.380710 0
M  V30 21 H 4.323072 -1.421432 0.459633 0
M  V30 22 H 4.885029 0.157186 -0.103660 0
M  V30 23 H 1.961356 -2.081266 0.259005 0
M  V30 24 H 0.474196 -0.622141 -1.738364 0
M  V30 25 H -0.040838 -2.085402 -0.857196 0
M  V30 26 H -4.110663 1.208386 2.337878 0
M  V30 27 H -5.641092 0.902450 0.393318 0
M  V30 28 H -4.777983 0.003675 -1.748482 0
M  V30 29 H -2.384034 -0.595380 -1.999113 0
M  V30 END ATOM
M  V30 BEGIN BOND
M  V30 1 1 1 2
M  V30 2 1 2 3
M  V30 3 1 2 4
M  V30 4 1 4 5
M  V30 5 1 5 6
M  V30 6 1 6 7
M  V30 7 2 7 8
M  V30 8 1 7 9
M  V30 9 1 9 10
M  V30 10 2 10 11
M  V30 11 1 11 12
M  V30 12 2 12 13
M  V30 13 1 13 14
M  V30 14 2 14 15
M  V30 15 1 8 4
M  V30 16 1 15 10
M  V30 17 1 15 6
M  V30 18 1 1 16
M  V30 19 1 1 17
M  V30 20 1 1 18
M  V30 21 1 2 19
M  V30 22 1 3 20
M  V30 23 1 3 21
M  V30 24 1 3 22
M  V30 25 1 4 23 CFG=1
M  V30 26 1 5 24
M  V30 27 1 5 25
M  V30 28 1 11 26
M  V30 29 1 12 27
M  V30 30 1 13 28
M  V30 31 1 14 29
M  V30 END BOND
M  V30 END CTAB
M  END
>  <catalyst_id>  (1) 
NRFXELMCDBIMBQ_VIFPVBQESA_NONE

>  <source_smiles>  (1) 
CC(C)[C@@H]1CN2C(=N1)Sc1ccccc12

>  <axial_configuration>  (1) 
none

>  <inchikey>  (1) 
NRFXELMCDBIMBQ-VIFPVBQESA-N

>  <build_source>  (1) 
smiles

>  <rdkit_version>  (1) 
2025.09.6

>  <random_seed>  (1) 
42

>  <generated_at>  (1) 
2026-05-19T12:37:18

$$$$
