catalyst304
     RDKit          3D

  0  0  0  0  0  0  0  0  0  0999 V3000
M  V30 BEGIN CTAB
M  V30 COUNTS 150 157 0 0 0
M  V30 BEGIN ATOM
M  V30 1 C -4.337131 -4.335559 -2.293686 0
M  V30 2 C -3.602099 -3.020273 -2.080750 0
M  V30 3 C -3.819407 -2.488434 -0.655550 0
M  V30 4 N -3.364083 -1.111596 -0.369804 0
M  V30 5 C -1.918703 -0.953695 -0.637200 0
M  V30 6 C -1.049211 -1.657737 0.383601 0
M  V30 7 C -0.313747 -2.799194 0.031919 0
M  V30 8 C 0.483984 -3.456873 0.969435 0
M  V30 9 C 0.581911 -2.937231 2.264701 0
M  V30 10 C -0.141837 -1.795363 2.641590 0
M  V30 11 C -0.048005 -1.234716 4.037300 0
M  V30 12 F 0.960158 -1.782521 4.770627 0
M  V30 13 F -1.185714 -1.417857 4.757747 0
M  V30 14 F 0.188548 0.109288 4.030931 0
M  V30 15 C -0.962054 -1.168862 1.693632 0
M  V30 16 N 1.268129 -4.587069 0.660810 0
M  V30 17 C 1.062758 -5.584010 -0.261438 0
M  V30 18 S -0.372064 -5.999066 -1.018236 0
M  V30 19 N 2.131949 -6.415375 -0.487142 0
M  V30 20 C 3.518517 -6.195778 -0.359466 0
M  V30 21 C 4.101696 -4.929015 -0.254587 0
M  V30 22 C 5.498297 -4.774398 -0.212748 0
M  V30 23 C 6.304331 -5.924147 -0.232478 0
M  V30 24 C 5.740095 -7.201882 -0.352825 0
M  V30 25 C 6.606656 -8.436542 -0.383650 0
M  V30 26 F 6.203140 -9.337947 -1.321430 0
M  V30 27 F 6.598784 -9.101728 0.803607 0
M  V30 28 F 7.914306 -8.173246 -0.658028 0
M  V30 29 C 4.344310 -7.322356 -0.426213 0
M  V30 30 C 6.160360 -3.404783 -0.129225 0
M  V30 31 N 5.554395 -2.353020 -0.970163 0
M  V30 32 C 5.588278 -2.721783 -2.393142 0
M  V30 33 C 6.171533 -1.006380 -0.766001 0 CFG=2
M  V30 34 C 7.711595 -0.982255 -0.959610 0
M  V30 35 C 8.278089 0.433780 -0.891668 0
M  V30 36 C 7.917687 1.113856 0.419807 0
M  V30 37 C 6.409978 1.120306 0.643586 0
M  V30 38 C 5.804309 -0.303578 0.602422 0 CFG=1
M  V30 39 N 4.385850 -0.185883 1.006235 0
M  V30 40 C 3.889753 -1.353077 1.719843 0
M  V30 41 C 3.443256 0.284093 -0.013676 0
M  V30 42 C 2.801294 1.597282 0.397593 0
M  V30 43 C 1.828516 1.635413 1.408172 0
M  V30 44 C 1.259094 2.841349 1.836739 0
M  V30 45 C 1.698993 4.031565 1.259961 0
M  V30 46 C 2.658404 4.025902 0.233589 0
M  V30 47 C 3.088161 5.321671 -0.406201 0
M  V30 48 F 2.263634 5.691948 -1.425226 0
M  V30 49 F 4.339740 5.264740 -0.943572 0
M  V30 50 F 3.105982 6.371675 0.461881 0
M  V30 51 C 3.192619 2.802761 -0.197936 0
M  V30 52 N 0.315438 2.765580 2.885822 0
M  V30 53 C -0.379463 3.734646 3.524979 0
M  V30 54 S -0.705829 3.529231 5.155291 0
M  V30 55 N -0.806832 4.872615 2.933738 0
M  V30 56 C -1.376299 5.073402 1.656537 0
M  V30 57 C -1.669729 4.043112 0.762650 0
M  V30 58 C -2.294381 4.311733 -0.466763 0
M  V30 59 C -2.629491 5.635470 -0.787146 0
M  V30 60 C -2.338015 6.684319 0.094309 0
M  V30 61 C -2.723314 8.103648 -0.233580 0
M  V30 62 F -1.754649 9.002461 0.099386 0
M  V30 63 F -3.844254 8.501487 0.428701 0
M  V30 64 F -2.978308 8.306579 -1.556462 0
M  V30 65 C -1.720212 6.387429 1.318570 0
M  V30 66 C -2.692554 3.186265 -1.398745 0
M  V30 67 N -4.027351 2.684429 -1.042927 0
M  V30 68 C -4.969746 2.747225 -2.159751 0
M  V30 69 C -6.436795 2.927928 -1.751862 0
M  V30 70 C -6.785966 4.380127 -1.448352 0
M  V30 71 C -3.971033 1.429510 -0.209618 0 CFG=1
M  V30 72 C -4.588142 1.602236 1.197315 0
M  V30 73 C -4.471740 0.586503 2.165474 0
M  V30 74 C -4.941900 0.756589 3.471581 0
M  V30 75 C -5.523179 1.960333 3.850805 0
M  V30 76 C -5.624960 2.992745 2.926138 0
M  V30 77 C -5.153078 2.816508 1.621419 0
M  V30 78 C -4.168330 0.005900 -0.990232 0 CFG=2
M  V30 79 C -5.637552 -0.346924 -1.292521 0
M  V30 80 C -6.601466 -0.545860 -0.293186 0
M  V30 81 C -7.922632 -0.874753 -0.613536 0
M  V30 82 C -8.306672 -1.024850 -1.941940 0
M  V30 83 C -7.367252 -0.854513 -2.952139 0
M  V30 84 C -6.048543 -0.523874 -2.630042 0
M  V30 85 H -4.147121 -4.716684 -3.302004 0
M  V30 86 H -4.005167 -5.091738 -1.575422 0
M  V30 87 H -5.417370 -4.202493 -2.179727 0
M  V30 88 H -2.537170 -3.192939 -2.265085 0
M  V30 89 H -3.939382 -2.302619 -2.831917 0
M  V30 90 H -3.306405 -3.169256 0.036831 0
M  V30 91 H -4.869548 -2.605041 -0.368959 0
M  V30 92 H -1.605523 0.094465 -0.605012 0
M  V30 93 H -1.659436 -1.267244 -1.655226 0
M  V30 94 H -0.353886 -3.144484 -0.996502 0
M  V30 95 H 1.214322 -3.429588 3.001975 0
M  V30 96 H -1.529951 -0.281809 1.973974 0
M  V30 97 H 1.961464 -4.842560 1.354646 0
M  V30 98 H 1.860871 -7.288820 -0.929693 0
M  V30 99 H 3.489701 -4.032304 -0.289606 0
M  V30 100 H 7.388816 -5.824351 -0.176638 0
M  V30 101 H 3.906050 -8.315524 -0.522855 0
M  V30 102 H 7.217668 -3.527639 -0.394340 0
M  V30 103 H 6.126526 -3.112486 0.926369 0
M  V30 104 H 5.167976 -1.921103 -3.011851 0
M  V30 105 H 4.967190 -3.599578 -2.594522 0
M  V30 106 H 6.600399 -2.938392 -2.750151 0
M  V30 107 H 5.764680 -0.356613 -1.552139 0
M  V30 108 H 8.204607 -1.583428 -0.186126 0
M  V30 109 H 7.989684 -1.411804 -1.927799 0
M  V30 110 H 9.368511 0.398112 -0.998893 0
M  V30 111 H 7.893989 1.024636 -1.732584 0
M  V30 112 H 8.293412 2.143238 0.416192 0
M  V30 113 H 8.411450 0.597486 1.252410 0
M  V30 114 H 6.202977 1.590929 1.613223 0
M  V30 115 H 5.949538 1.751857 -0.124112 0
M  V30 116 H 6.327803 -0.854830 1.396948 0
M  V30 117 H 3.707480 -2.201856 1.059653 0
M  V30 118 H 4.583655 -1.666622 2.507139 0
M  V30 119 H 2.951502 -1.117672 2.229906 0
M  V30 120 H 3.915999 0.429530 -0.989557 0
M  V30 121 H 2.645744 -0.447656 -0.202768 0
M  V30 122 H 1.526451 0.702208 1.872548 0
M  V30 123 H 1.332128 4.991623 1.611150 0
M  V30 124 H 3.941803 2.797001 -0.988503 0
M  V30 125 H 0.352356 1.901305 3.424384 0
M  V30 126 H -1.052510 5.588495 3.610168 0
M  V30 127 H -1.469099 3.010885 1.029491 0
M  V30 128 H -3.144186 5.845857 -1.724541 0
M  V30 129 H -1.506557 7.201320 2.011122 0
M  V30 130 H -2.658241 3.575085 -2.425659 0
M  V30 131 H -1.923646 2.402123 -1.399654 0
M  V30 132 H -4.847544 1.890815 -2.824983 0
M  V30 133 H -4.732083 3.611084 -2.796006 0
M  V30 134 H -7.073743 2.593612 -2.579541 0
M  V30 135 H -6.696147 2.307416 -0.891118 0
M  V30 136 H -6.684715 4.997308 -2.348125 0
M  V30 137 H -7.823229 4.454989 -1.106112 0
M  V30 138 H -6.139613 4.806906 -0.677797 0
M  V30 139 H -2.924557 1.392757 0.109469 0
M  V30 140 H -4.013607 -0.366945 1.918500 0
M  V30 141 H -4.842570 -0.050675 4.192475 0
M  V30 142 H -5.881029 2.099114 4.866975 0
M  V30 143 H -6.055042 3.946861 3.219620 0
M  V30 144 H -5.206725 3.662951 0.945558 0
M  V30 145 H -3.698451 0.158881 -1.973163 0
M  V30 146 H -6.344710 -0.468978 0.756816 0
M  V30 147 H -8.648763 -1.017960 0.182789 0
M  V30 148 H -9.333782 -1.281252 -2.186568 0
M  V30 149 H -7.658184 -0.980615 -3.991631 0
M  V30 150 H -5.335862 -0.404923 -3.443650 0
M  V30 END ATOM
M  V30 BEGIN BOND
M  V30 1 1 1 2
M  V30 2 1 2 3
M  V30 3 1 3 4
M  V30 4 1 4 5
M  V30 5 1 5 6
M  V30 6 1 6 7
M  V30 7 2 7 8
M  V30 8 1 8 9
M  V30 9 2 9 10
M  V30 10 1 10 11
M  V30 11 1 11 12
M  V30 12 1 11 13
M  V30 13 1 11 14
M  V30 14 1 10 15
M  V30 15 1 8 16
M  V30 16 1 16 17
M  V30 17 2 17 18
M  V30 18 1 17 19
M  V30 19 1 19 20
M  V30 20 1 20 21
M  V30 21 2 21 22
M  V30 22 1 22 23
M  V30 23 2 23 24
M  V30 24 1 24 25
M  V30 25 1 25 26
M  V30 26 1 25 27
M  V30 27 1 25 28
M  V30 28 1 24 29
M  V30 29 1 22 30
M  V30 30 1 30 31
M  V30 31 1 31 32
M  V30 32 1 31 33
M  V30 33 1 33 34
M  V30 34 1 34 35
M  V30 35 1 35 36
M  V30 36 1 36 37
M  V30 37 1 37 38
M  V30 38 1 38 39
M  V30 39 1 39 40
M  V30 40 1 39 41
M  V30 41 1 41 42
M  V30 42 1 42 43
M  V30 43 2 43 44
M  V30 44 1 44 45
M  V30 45 2 45 46
M  V30 46 1 46 47
M  V30 47 1 47 48
M  V30 48 1 47 49
M  V30 49 1 47 50
M  V30 50 1 46 51
M  V30 51 1 44 52
M  V30 52 1 52 53
M  V30 53 2 53 54
M  V30 54 1 53 55
M  V30 55 1 55 56
M  V30 56 1 56 57
M  V30 57 2 57 58
M  V30 58 1 58 59
M  V30 59 2 59 60
M  V30 60 1 60 61
M  V30 61 1 61 62
M  V30 62 1 61 63
M  V30 63 1 61 64
M  V30 64 1 60 65
M  V30 65 1 58 66
M  V30 66 1 66 67
M  V30 67 1 67 68
M  V30 68 1 68 69
M  V30 69 1 69 70
M  V30 70 1 67 71
M  V30 71 1 71 72
M  V30 72 2 72 73
M  V30 73 1 73 74
M  V30 74 2 74 75
M  V30 75 1 75 76
M  V30 76 2 76 77
M  V30 77 1 71 78
M  V30 78 1 78 79
M  V30 79 2 79 80
M  V30 80 1 80 81
M  V30 81 2 81 82
M  V30 82 1 82 83
M  V30 83 2 83 84
M  V30 84 1 78 4
M  V30 85 1 84 79
M  V30 86 2 15 6
M  V30 87 2 29 20
M  V30 88 1 38 33
M  V30 89 2 51 42
M  V30 90 2 65 56
M  V30 91 1 77 72
M  V30 92 1 1 85
M  V30 93 1 1 86
M  V30 94 1 1 87
M  V30 95 1 2 88
M  V30 96 1 2 89
M  V30 97 1 3 90
M  V30 98 1 3 91
M  V30 99 1 5 92
M  V30 100 1 5 93
M  V30 101 1 7 94
M  V30 102 1 9 95
M  V30 103 1 15 96
M  V30 104 1 16 97
M  V30 105 1 19 98
M  V30 106 1 21 99
M  V30 107 1 23 100
M  V30 108 1 29 101
M  V30 109 1 30 102
M  V30 110 1 30 103
M  V30 111 1 32 104
M  V30 112 1 32 105
M  V30 113 1 32 106
M  V30 114 1 33 107 CFG=3
M  V30 115 1 34 108
M  V30 116 1 34 109
M  V30 117 1 35 110
M  V30 118 1 35 111
M  V30 119 1 36 112
M  V30 120 1 36 113
M  V30 121 1 37 114
M  V30 122 1 37 115
M  V30 123 1 38 116 CFG=1
M  V30 124 1 40 117
M  V30 125 1 40 118
M  V30 126 1 40 119
M  V30 127 1 41 120
M  V30 128 1 41 121
M  V30 129 1 43 122
M  V30 130 1 45 123
M  V30 131 1 51 124
M  V30 132 1 52 125
M  V30 133 1 55 126
M  V30 134 1 57 127
M  V30 135 1 59 128
M  V30 136 1 65 129
M  V30 137 1 66 130
M  V30 138 1 66 131
M  V30 139 1 68 132
M  V30 140 1 68 133
M  V30 141 1 69 134
M  V30 142 1 69 135
M  V30 143 1 70 136
M  V30 144 1 70 137
M  V30 145 1 70 138
M  V30 146 1 71 139 CFG=1
M  V30 147 1 73 140
M  V30 148 1 74 141
M  V30 149 1 75 142
M  V30 150 1 76 143
M  V30 151 1 77 144
M  V30 152 1 78 145 CFG=3
M  V30 153 1 80 146
M  V30 154 1 81 147
M  V30 155 1 82 148
M  V30 156 1 83 149
M  V30 157 1 84 150
M  V30 END BOND
M  V30 END CTAB
M  END
>  <catalyst_id>  (1) 
RMGUIDCPHWTCSL_GRGRLRQMSA_NONE

>  <source_smiles>  (1) 
CCCN1Cc2cc(cc(C(F)(F)F)c2)NC(=S)Nc2cc(cc(C(F)(F)F)c2)CN(C)[C@@H]2CCCC[C@H]2N(C)Cc2cc(cc(C(F)(F)F)c2)NC(=S)Nc2cc(cc(C(F)(F)F)c2)CN(CCC)[C@@H](c2ccccc2)[C@@H]1c1ccccc1

>  <axial_configuration>  (1) 
none

>  <inchikey>  (1) 
RMGUIDCPHWTCSL-GRGRLRQMSA-N

>  <build_source>  (1) 
smiles

>  <rdkit_version>  (1) 
2025.09.6

>  <random_seed>  (1) 
42

>  <generated_at>  (1) 
2026-05-19T12:38:05

$$$$
