catalyst142
     RDKit          3D

  0  0  0  0  0  0  0  0  0  0999 V3000
M  V30 BEGIN CTAB
M  V30 COUNTS 81 83 0 0 0
M  V30 BEGIN ATOM
M  V30 1 C -0.693178 -2.696124 -3.234916 0
M  V30 2 C -1.711497 -1.833879 -2.485071 0 CFG=1
M  V30 3 C -1.966246 -0.507423 -3.225344 0
M  V30 4 N -0.751149 0.303439 -3.321271 0
M  V30 5 C -0.515376 1.192641 -2.421315 0
M  V30 6 N 0.551760 2.039352 -2.541450 0
M  V30 7 C 1.600382 1.864051 -3.537641 0
M  V30 8 C 2.824609 1.128122 -2.942297 0 CFG=2
M  V30 9 C 3.830688 0.812522 -4.047715 0
M  V30 10 N 2.432741 -0.101364 -2.240605 0
M  V30 11 C 2.971919 -0.673170 -1.119947 0
M  V30 12 S 2.117355 -1.930845 -0.430935 0
M  V30 13 N 4.173060 -0.140799 -0.720217 0
M  V30 14 C 4.875723 -0.245412 0.499583 0
M  V30 15 C 4.275777 -0.528263 1.727185 0
M  V30 16 C 5.032906 -0.585777 2.911099 0
M  V30 17 C 4.361705 -0.921465 4.222480 0
M  V30 18 F 5.036714 -0.436356 5.302026 0
M  V30 19 F 4.250064 -2.261894 4.421163 0
M  V30 20 F 3.100696 -0.415711 4.318334 0
M  V30 21 C 6.414702 -0.351809 2.849754 0
M  V30 22 C 7.032652 -0.029226 1.633425 0
M  V30 23 C 8.520399 0.219747 1.564466 0
M  V30 24 F 9.222845 -0.915482 1.305099 0
M  V30 25 F 8.862537 1.105651 0.587657 0
M  V30 26 F 9.030640 0.725533 2.720630 0
M  V30 27 C 6.250059 0.023082 0.467374 0
M  V30 28 N -1.246945 1.427990 -1.277999 0
M  V30 29 C -0.685513 0.992537 0.016974 0
M  V30 30 C -1.217029 1.984263 1.043399 0
M  V30 31 C -1.377015 3.256242 0.235814 0
M  V30 32 C -1.892109 2.740902 -1.100534 0
M  V30 33 N -2.954158 -2.604479 -2.328299 0
M  V30 34 C -3.964877 -2.477674 -1.418750 0
M  V30 35 S -5.203711 -3.592532 -1.546321 0
M  V30 36 N -3.848499 -1.425318 -0.546085 0
M  V30 37 C -4.610274 -1.104728 0.597353 0
M  V30 38 C -4.709818 0.248661 0.935323 0
M  V30 39 C -5.414699 0.668751 2.074198 0
M  V30 40 C -5.535168 2.136603 2.401603 0
M  V30 41 F -5.483261 2.386802 3.738728 0
M  V30 42 F -4.543718 2.890368 1.845512 0
M  V30 43 F -6.704395 2.673559 1.961097 0
M  V30 44 C -6.030376 -0.297954 2.881490 0
M  V30 45 C -5.932802 -1.663006 2.568123 0
M  V30 46 C -6.553086 -2.706124 3.467641 0
M  V30 47 F -7.637113 -2.239179 4.149007 0
M  V30 48 F -6.981444 -3.811430 2.800380 0
M  V30 49 F -5.681738 -3.149542 4.414803 0
M  V30 50 C -5.205598 -2.053046 1.429714 0
M  V30 51 H 0.265486 -2.184006 -3.350706 0
M  V30 52 H -0.511177 -3.632590 -2.695952 0
M  V30 53 H -1.057679 -2.959582 -4.234322 0
M  V30 54 H -1.322910 -1.629506 -1.482394 0
M  V30 55 H -2.305040 -0.723073 -4.246837 0
M  V30 56 H -2.791273 0.056864 -2.776461 0
M  V30 57 H 0.846056 2.491680 -1.688394 0
M  V30 58 H 1.914060 2.855095 -3.885759 0
M  V30 59 H 1.221943 1.333911 -4.419616 0
M  V30 60 H 3.296734 1.791953 -2.207997 0
M  V30 61 H 4.146031 1.727544 -4.559733 0
M  V30 62 H 3.396850 0.136208 -4.792844 0
M  V30 63 H 4.725910 0.324635 -3.650044 0
M  V30 64 H 1.528883 -0.484742 -2.515430 0
M  V30 65 H 4.716399 0.224170 -1.489284 0
M  V30 66 H 3.202299 -0.678137 1.803974 0
M  V30 67 H 7.012756 -0.409549 3.761149 0
M  V30 68 H 6.737166 0.259781 -0.478206 0
M  V30 69 H -0.995623 -0.028827 0.254915 0
M  V30 70 H 0.409472 1.029020 0.004824 0
M  V30 71 H -2.186370 1.653309 1.427576 0
M  V30 72 H -0.541364 2.104611 1.894974 0
M  V30 73 H -2.060614 3.972003 0.700495 0
M  V30 74 H -0.403670 3.743799 0.104877 0
M  V30 75 H -1.676759 3.444132 -1.912306 0
M  V30 76 H -2.976918 2.593405 -1.063628 0
M  V30 77 H -3.108846 -3.356824 -2.991708 0
M  V30 78 H -3.273089 -0.670821 -0.896747 0
M  V30 79 H -4.254731 0.997921 0.290332 0
M  V30 80 H -6.586516 0.013250 3.767642 0
M  V30 81 H -5.086604 -3.116443 1.234497 0
M  V30 END ATOM
M  V30 BEGIN BOND
M  V30 1 1 1 2
M  V30 2 1 2 3
M  V30 3 1 3 4
M  V30 4 2 4 5
M  V30 5 1 5 6
M  V30 6 1 6 7
M  V30 7 1 7 8
M  V30 8 1 8 9
M  V30 9 1 8 10
M  V30 10 1 10 11
M  V30 11 2 11 12
M  V30 12 1 11 13
M  V30 13 1 13 14
M  V30 14 2 14 15
M  V30 15 1 15 16
M  V30 16 1 16 17
M  V30 17 1 17 18
M  V30 18 1 17 19
M  V30 19 1 17 20
M  V30 20 2 16 21
M  V30 21 1 21 22
M  V30 22 1 22 23
M  V30 23 1 23 24
M  V30 24 1 23 25
M  V30 25 1 23 26
M  V30 26 2 22 27
M  V30 27 1 5 28
M  V30 28 1 28 29
M  V30 29 1 29 30
M  V30 30 1 30 31
M  V30 31 1 31 32
M  V30 32 1 2 33
M  V30 33 1 33 34
M  V30 34 2 34 35
M  V30 35 1 34 36
M  V30 36 1 36 37
M  V30 37 2 37 38
M  V30 38 1 38 39
M  V30 39 1 39 40
M  V30 40 1 40 41
M  V30 41 1 40 42
M  V30 42 1 40 43
M  V30 43 2 39 44
M  V30 44 1 44 45
M  V30 45 1 45 46
M  V30 46 1 46 47
M  V30 47 1 46 48
M  V30 48 1 46 49
M  V30 49 2 45 50
M  V30 50 1 27 14
M  V30 51 1 32 28
M  V30 52 1 50 37
M  V30 53 1 1 51
M  V30 54 1 1 52
M  V30 55 1 1 53
M  V30 56 1 2 54 CFG=1
M  V30 57 1 3 55
M  V30 58 1 3 56
M  V30 59 1 6 57
M  V30 60 1 7 58
M  V30 61 1 7 59
M  V30 62 1 8 60 CFG=1
M  V30 63 1 9 61
M  V30 64 1 9 62
M  V30 65 1 9 63
M  V30 66 1 10 64
M  V30 67 1 13 65
M  V30 68 1 15 66
M  V30 69 1 21 67
M  V30 70 1 27 68
M  V30 71 1 29 69
M  V30 72 1 29 70
M  V30 73 1 30 71
M  V30 74 1 30 72
M  V30 75 1 31 73
M  V30 76 1 31 74
M  V30 77 1 32 75
M  V30 78 1 32 76
M  V30 79 1 33 77
M  V30 80 1 36 78
M  V30 81 1 38 79
M  V30 82 1 44 80
M  V30 83 1 50 81
M  V30 END BOND
M  V30 END CTAB
M  END
>  <catalyst_id>  (1) 
JUVSLXWWPVCOQL_HOTGVXAUSA_NONE

>  <source_smiles>  (1) 
C[C@@H](C/N=C(/NC[C@H](C)NC(=S)Nc1cc(C(F)(F)F)cc(C(F)(F)F)c1)N1CCCC1)NC(=S)Nc1cc(C(F)(F)F)cc(C(F)(F)F)c1

>  <axial_configuration>  (1) 
none

>  <inchikey>  (1) 
JUVSLXWWPVCOQL-HOTGVXAUSA-N

>  <build_source>  (1) 
smiles

>  <rdkit_version>  (1) 
2025.09.6

>  <random_seed>  (1) 
42

>  <generated_at>  (1) 
2026-05-19T12:31:42

$$$$
