catalyst87
     RDKit          3D

  0  0  0  0  0  0  0  0  0  0999 V3000
M  V30 BEGIN CTAB
M  V30 COUNTS 97 103 0 0 0
M  V30 BEGIN ATOM
M  V30 1 C -6.353388 4.826765 -0.816123 0
M  V30 2 C -5.327351 3.993445 -0.599951 0
M  V30 3 C -4.296260 4.189490 0.486581 0 CFG=1
M  V30 4 C -4.188364 2.955368 1.422752 0
M  V30 5 N -2.807197 2.400722 1.458888 0
M  V30 6 C -1.898816 3.452574 1.971083 0
M  V30 7 C -1.956562 4.730240 1.120245 0
M  V30 8 C -2.888653 4.498341 -0.082607 0 CFG=1
M  V30 9 C -2.321887 3.281695 -0.838452 0
M  V30 10 C -2.433227 2.021594 0.051764 0 CFG=1
M  V30 11 C -1.151172 1.112899 -0.014384 0 CFG=1
M  V30 12 N -1.119520 0.224090 1.157169 0
M  V30 13 C -0.204297 -0.669523 1.602104 0
M  V30 14 S -0.390581 -1.240767 3.160415 0
M  V30 15 N 0.776242 -1.029960 0.733451 0
M  V30 16 C 1.611711 -2.248175 0.807107 0 CFG=1
M  V30 17 C 1.614565 -2.901232 -0.573284 0
M  V30 18 C 0.950614 -4.123175 -0.765219 0
M  V30 19 C 0.909344 -4.720925 -2.025380 0
M  V30 20 C 1.525250 -4.103794 -3.110834 0
M  V30 21 C 2.182158 -2.887957 -2.938808 0
M  V30 22 C 2.225889 -2.287468 -1.679756 0
M  V30 23 C 3.059191 -1.982295 1.362677 0 CFG=1
M  V30 24 N 3.021647 -1.044598 2.496271 0
M  V30 25 S 4.077233 0.225507 2.606479 0
M  V30 26 O 3.845959 0.854657 3.888254 0
M  V30 27 O 5.392450 -0.224491 2.208275 0
M  V30 28 C 3.489873 1.343936 1.353024 0
M  V30 29 C 2.525592 2.298356 1.684697 0
M  V30 30 C 2.133886 3.241598 0.733007 0
M  V30 31 C 2.685324 3.225307 -0.555060 0
M  V30 32 C 2.296949 4.273263 -1.557022 0
M  V30 33 C 3.661545 2.270535 -0.870608 0
M  V30 34 C 4.070610 1.335063 0.082042 0
M  V30 35 C 3.731772 -3.289162 1.766259 0
M  V30 36 C 3.352140 -3.978051 2.930602 0
M  V30 37 C 3.961341 -5.186180 3.273904 0
M  V30 38 C 4.955915 -5.722456 2.459740 0
M  V30 39 C 5.344301 -5.050765 1.302991 0
M  V30 40 C 4.737435 -3.841834 0.957726 0
M  V30 41 C -1.051980 0.404559 -1.364442 0
M  V30 42 C -0.158954 0.951928 -2.300289 0
M  V30 43 C -0.032232 0.359338 -3.538309 0
M  V30 44 N -0.717771 -0.733252 -3.910459 0
M  V30 45 C -1.569140 -1.280758 -3.029180 0
M  V30 46 C -2.255508 -2.416417 -3.427848 0
M  V30 47 C -3.166405 -3.059091 -2.589040 0
M  V30 48 C -3.409739 -2.563877 -1.315906 0
M  V30 49 O -4.317297 -3.274969 -0.582451 0
M  V30 50 C -4.438861 -2.933034 0.793881 0
M  V30 51 C -2.740215 -1.412233 -0.901771 0
M  V30 52 C -1.797072 -0.752637 -1.734663 0
M  V30 53 H -6.507456 5.717117 -0.214217 0
M  V30 54 H -7.068381 4.632267 -1.610387 0
M  V30 55 H -5.231584 3.115574 -1.236585 0
M  V30 56 H -4.601103 5.046162 1.104787 0
M  V30 57 H -4.890565 2.162031 1.135220 0
M  V30 58 H -4.483606 3.241328 2.441080 0
M  V30 59 H -0.870796 3.076103 2.015545 0
M  V30 60 H -2.161313 3.688047 3.010172 0
M  V30 61 H -0.950755 4.995430 0.774050 0
M  V30 62 H -2.320887 5.569533 1.724601 0
M  V30 63 H -2.903838 5.383117 -0.728774 0
M  V30 64 H -1.280011 3.489384 -1.109840 0
M  V30 65 H -2.865880 3.123255 -1.776659 0
M  V30 66 H -3.266365 1.415390 -0.330773 0
M  V30 67 H -0.264103 1.742925 0.114843 0
M  V30 68 H -1.763598 0.533468 1.884438 0
M  V30 69 H 0.726750 -0.624423 -0.186260 0
M  V30 70 H 1.108419 -2.939811 1.492872 0
M  V30 71 H 0.451494 -4.617963 0.065746 0
M  V30 72 H 0.387380 -5.664575 -2.160823 0
M  V30 73 H 1.482347 -4.564119 -4.094240 0
M  V30 74 H 2.645122 -2.400046 -3.792412 0
M  V30 75 H 2.726081 -1.327690 -1.579829 0
M  V30 76 H 3.658471 -1.522715 0.568999 0
M  V30 77 H 2.254029 -1.089988 3.165152 0
M  V30 78 H 2.098278 2.329167 2.685067 0
M  V30 79 H 1.407037 4.001771 1.010022 0
M  V30 80 H 1.258644 4.588209 -1.408115 0
M  V30 81 H 2.374475 3.884248 -2.577719 0
M  V30 82 H 2.950049 5.145690 -1.458970 0
M  V30 83 H 4.131974 2.268665 -1.852179 0
M  V30 84 H 4.857625 0.625100 -0.163484 0
M  V30 85 H 2.581294 -3.576307 3.584607 0
M  V30 86 H 3.662174 -5.706113 4.180296 0
M  V30 87 H 5.432185 -6.661230 2.729374 0
M  V30 88 H 6.123379 -5.466558 0.669409 0
M  V30 89 H 5.058558 -3.335205 0.050247 0
M  V30 90 H 0.433949 1.831577 -2.073554 0
M  V30 91 H 0.645722 0.757918 -4.287298 0
M  V30 92 H -2.072690 -2.819726 -4.420971 0
M  V30 93 H -3.681056 -3.951819 -2.934227 0
M  V30 94 H -4.877450 -1.936850 0.912132 0
M  V30 95 H -5.119789 -3.653180 1.257655 0
M  V30 96 H -3.475170 -3.005929 1.309265 0
M  V30 97 H -2.945523 -1.011422 0.083132 0
M  V30 END ATOM
M  V30 BEGIN BOND
M  V30 1 2 1 2
M  V30 2 1 2 3
M  V30 3 1 3 4
M  V30 4 1 4 5
M  V30 5 1 5 6
M  V30 6 1 6 7
M  V30 7 1 7 8
M  V30 8 1 8 9
M  V30 9 1 9 10
M  V30 10 1 10 11
M  V30 11 1 11 12
M  V30 12 1 12 13
M  V30 13 2 13 14
M  V30 14 1 13 15
M  V30 15 1 15 16
M  V30 16 1 16 17
M  V30 17 2 17 18
M  V30 18 1 18 19
M  V30 19 2 19 20
M  V30 20 1 20 21
M  V30 21 2 21 22
M  V30 22 1 16 23
M  V30 23 1 23 24
M  V30 24 1 24 25
M  V30 25 2 25 26
M  V30 26 2 25 27
M  V30 27 1 25 28
M  V30 28 2 28 29
M  V30 29 1 29 30
M  V30 30 2 30 31
M  V30 31 1 31 32
M  V30 32 1 31 33
M  V30 33 2 33 34
M  V30 34 1 23 35
M  V30 35 2 35 36
M  V30 36 1 36 37
M  V30 37 2 37 38
M  V30 38 1 38 39
M  V30 39 2 39 40
M  V30 40 1 11 41
M  V30 41 2 41 42
M  V30 42 1 42 43
M  V30 43 2 43 44
M  V30 44 1 44 45
M  V30 45 2 45 46
M  V30 46 1 46 47
M  V30 47 2 47 48
M  V30 48 1 48 49
M  V30 49 1 49 50
M  V30 50 1 48 51
M  V30 51 2 51 52
M  V30 52 1 8 3
M  V30 53 1 22 17
M  V30 54 1 34 28
M  V30 55 1 40 35
M  V30 56 1 52 41
M  V30 57 1 10 5
M  V30 58 1 52 45
M  V30 59 1 1 53
M  V30 60 1 1 54
M  V30 61 1 2 55
M  V30 62 1 3 56 CFG=1
M  V30 63 1 4 57
M  V30 64 1 4 58
M  V30 65 1 6 59
M  V30 66 1 6 60
M  V30 67 1 7 61
M  V30 68 1 7 62
M  V30 69 1 8 63 CFG=3
M  V30 70 1 9 64
M  V30 71 1 9 65
M  V30 72 1 10 66 CFG=3
M  V30 73 1 11 67 CFG=1
M  V30 74 1 12 68
M  V30 75 1 15 69
M  V30 76 1 16 70 CFG=1
M  V30 77 1 18 71
M  V30 78 1 19 72
M  V30 79 1 20 73
M  V30 80 1 21 74
M  V30 81 1 22 75
M  V30 82 1 23 76 CFG=3
M  V30 83 1 24 77
M  V30 84 1 29 78
M  V30 85 1 30 79
M  V30 86 1 32 80
M  V30 87 1 32 81
M  V30 88 1 32 82
M  V30 89 1 33 83
M  V30 90 1 34 84
M  V30 91 1 36 85
M  V30 92 1 37 86
M  V30 93 1 38 87
M  V30 94 1 39 88
M  V30 95 1 40 89
M  V30 96 1 42 90
M  V30 97 1 43 91
M  V30 98 1 46 92
M  V30 99 1 47 93
M  V30 100 1 50 94
M  V30 101 1 50 95
M  V30 102 1 50 96
M  V30 103 1 51 97
M  V30 END BOND
M  V30 END CTAB
M  END
>  <catalyst_id>  (1) 
HBDICRCQICDIOG_ZXNXDBINSA_NONE

>  <source_smiles>  (1) 
C=C[C@H]1CN2CC[C@H]1C[C@H]2[C@@H](NC(=S)N[C@@H](c1ccccc1)[C@@H](NS(=O)(=O)c1ccc(C)cc1)c1ccccc1)c1ccnc2ccc(OC)cc12

>  <axial_configuration>  (1) 
none

>  <inchikey>  (1) 
HBDICRCQICDIOG-ZXNXDBINSA-N

>  <build_source>  (1) 
smiles

>  <rdkit_version>  (1) 
2025.09.6

>  <random_seed>  (1) 
42

>  <generated_at>  (1) 
2026-05-19T12:33:31

$$$$
