catalyst387
     RDKit          3D

  0  0  0  0  0  0  0  0  0  0999 V3000
M  V30 BEGIN CTAB
M  V30 COUNTS 78 80 0 0 0
M  V30 BEGIN ATOM
M  V30 1 C -0.639158 -0.000116 0.045536 0
M  V30 2 C 0.875593 0.006259 -0.064600 0
M  V30 3 O 1.432916 -1.087179 0.233480 0
M  V30 4 O 1.384401 1.099104 -0.438749 0 CHG=-1
M  V30 5 O -0.946278 -1.098766 -0.610257 0
M  V30 6 C -1.536169 -1.682013 0.301730 0
M  V30 7 N -0.983374 -2.748324 0.973895 0
M  V30 8 C 0.419608 -3.126438 0.784031 0 CFG=2
M  V30 9 C 0.558585 -4.657520 0.873612 0
M  V30 10 C 1.970495 -5.129851 1.230549 0
M  V30 11 C 3.036883 -4.123809 0.821085 0
M  V30 12 C 2.846331 -2.773374 1.516022 0
M  V30 13 C 1.370719 -2.438250 1.802544 0 CFG=1
M  V30 14 N 1.167493 -0.997367 2.045797 0
M  V30 15 C 1.462183 0.075364 1.251532 0
M  V30 16 S 1.571891 1.570043 2.003097 0
M  V30 17 N 1.561296 -0.178138 -0.086772 0
M  V30 18 C 2.202386 0.562802 -1.100641 0
M  V30 19 C 1.707239 0.436529 -2.402506 0
M  V30 20 C 2.296000 1.129400 -3.473063 0
M  V30 21 C 1.703677 1.008723 -4.857275 0
M  V30 22 F 2.475280 1.563667 -5.829647 0
M  V30 23 F 0.490340 1.622593 -4.941774 0
M  V30 24 F 1.496377 -0.284019 -5.226803 0
M  V30 25 C 3.410114 1.943765 -3.222416 0
M  V30 26 C 3.947319 2.047782 -1.929438 0
M  V30 27 C 5.146691 2.925868 -1.656018 0
M  V30 28 F 4.778385 4.164204 -1.226625 0
M  V30 29 F 5.966151 2.421212 -0.694282 0
M  V30 30 F 5.927161 3.122726 -2.752614 0
M  V30 31 C 3.333012 1.349038 -0.875655 0
M  V30 32 C -2.958112 -1.281384 0.755950 0 CFG=2
M  V30 33 C -4.015023 -1.884508 -0.162331 0
M  V30 34 C -4.099378 -0.877458 -1.308952 0
M  V30 35 C -3.869635 0.467840 -0.631039 0
M  V30 36 N -3.105969 0.162663 0.571108 0
M  V30 37 C -2.476089 1.028255 1.420665 0
M  V30 38 O -1.937467 0.655443 2.469303 0
M  V30 39 C -2.384445 2.511936 1.048141 0 CFG=1
M  V30 40 C -3.678277 3.282840 1.254345 0
M  V30 41 C -3.210118 4.680320 1.624541 0
M  V30 42 C -2.032920 4.431514 2.544335 0
M  V30 43 N -1.406629 3.204298 1.993508 0 CHG=1
M  V30 44 H -1.054941 -0.784044 -0.594522 0
M  V30 45 H -1.065331 0.959503 -0.262452 0
M  V30 46 H -0.933480 -0.193527 1.081307 0
M  V30 47 H -1.431447 -3.057721 1.828660 0
M  V30 48 H 0.713402 -2.831949 -0.230001 0
M  V30 49 H -0.140990 -5.071632 1.611258 0
M  V30 50 H 0.259796 -5.089857 -0.090218 0
M  V30 51 H 2.032881 -5.295888 2.313605 0
M  V30 52 H 2.162616 -6.099650 0.757540 0
M  V30 53 H 2.999848 -3.982187 -0.266443 0
M  V30 54 H 4.034497 -4.515473 1.050098 0
M  V30 55 H 3.392608 -2.771743 2.468310 0
M  V30 56 H 3.326494 -2.003041 0.902369 0
M  V30 57 H 1.128192 -2.880038 2.780704 0
M  V30 58 H 1.116803 -0.742010 3.026530 0
M  V30 59 H 0.808045 -0.781541 -0.418699 0
M  V30 60 H 0.841071 -0.196833 -2.597384 0
M  V30 61 H 3.875658 2.492351 -4.044006 0
M  V30 62 H 3.781784 1.405778 0.114140 0
M  V30 63 H -3.106953 -1.551079 1.806684 0
M  V30 64 H -4.980537 -1.923413 0.356426 0
M  V30 65 H -3.770082 -2.891248 -0.513604 0
M  V30 66 H -5.054024 -0.919977 -1.841082 0
M  V30 67 H -3.302329 -1.071955 -2.036225 0
M  V30 68 H -3.331096 1.174323 -1.268171 0
M  V30 69 H -4.816365 0.919142 -0.316728 0
M  V30 70 H -1.967978 2.640549 0.044349 0
M  V30 71 H -4.274161 2.848872 2.066601 0
M  V30 72 H -4.301116 3.292286 0.354861 0
M  V30 73 H -3.995147 5.270747 2.105237 0
M  V30 74 H -2.882365 5.218034 0.726582 0
M  V30 75 H -2.351048 4.200526 3.565591 0
M  V30 76 H -1.294324 5.236690 2.543611 0
M  V30 77 H -0.500912 3.369647 1.529343 0
M  V30 78 H -1.178551 2.520682 2.742955 0
M  V30 END ATOM
M  V30 BEGIN BOND
M  V30 1 1 1 2
M  V30 2 2 2 3
M  V30 3 1 2 4
M  V30 4 2 5 6
M  V30 5 1 6 7
M  V30 6 1 7 8
M  V30 7 1 8 9
M  V30 8 1 9 10
M  V30 9 1 10 11
M  V30 10 1 11 12
M  V30 11 1 12 13
M  V30 12 1 13 14
M  V30 13 1 14 15
M  V30 14 2 15 16
M  V30 15 1 15 17
M  V30 16 1 17 18
M  V30 17 2 18 19
M  V30 18 1 19 20
M  V30 19 1 20 21
M  V30 20 1 21 22
M  V30 21 1 21 23
M  V30 22 1 21 24
M  V30 23 2 20 25
M  V30 24 1 25 26
M  V30 25 1 26 27
M  V30 26 1 27 28
M  V30 27 1 27 29
M  V30 28 1 27 30
M  V30 29 2 26 31
M  V30 30 1 6 32
M  V30 31 1 32 33
M  V30 32 1 33 34
M  V30 33 1 34 35
M  V30 34 1 35 36
M  V30 35 1 36 37
M  V30 36 2 37 38
M  V30 37 1 37 39
M  V30 38 1 39 40
M  V30 39 1 40 41
M  V30 40 1 41 42
M  V30 41 1 42 43
M  V30 42 1 13 8
M  V30 43 1 31 18
M  V30 44 1 36 32
M  V30 45 1 43 39
M  V30 46 1 1 44
M  V30 47 1 1 45
M  V30 48 1 1 46
M  V30 49 1 7 47
M  V30 50 1 8 48 CFG=3
M  V30 51 1 9 49
M  V30 52 1 9 50
M  V30 53 1 10 51
M  V30 54 1 10 52
M  V30 55 1 11 53
M  V30 56 1 11 54
M  V30 57 1 12 55
M  V30 58 1 12 56
M  V30 59 1 13 57 CFG=1
M  V30 60 1 14 58
M  V30 61 1 17 59
M  V30 62 1 19 60
M  V30 63 1 25 61
M  V30 64 1 31 62
M  V30 65 1 32 63 CFG=1
M  V30 66 1 33 64
M  V30 67 1 33 65
M  V30 68 1 34 66
M  V30 69 1 34 67
M  V30 70 1 35 68
M  V30 71 1 35 69
M  V30 72 1 39 70 CFG=3
M  V30 73 1 40 71
M  V30 74 1 40 72
M  V30 75 1 41 73
M  V30 76 1 41 74
M  V30 77 1 42 75
M  V30 78 1 42 76
M  V30 79 1 43 77
M  V30 80 1 43 78
M  V30 END BOND
M  V30 END CTAB
M  END
>  <catalyst_id>  (1) 
WURZVNGSTJXGSY_ROZCBPTOSA_NONE

>  <source_smiles>  (1) 
CC(=O)[O-].O=C(N[C@@H]1CCCC[C@H]1NC(=S)Nc1cc(C(F)(F)F)cc(C(F)(F)F)c1)[C@@H]1CCCN1C(=O)[C@H]1CCC[NH2+]1

>  <axial_configuration>  (1) 
none

>  <inchikey>  (1) 
WURZVNGSTJXGSY-ROZCBPTOSA-N

>  <build_source>  (1) 
smiles

>  <rdkit_version>  (1) 
2025.09.6

>  <random_seed>  (1) 
42

>  <generated_at>  (1) 
2026-05-19T12:37:19

$$$$
