catalyst97
     RDKit          3D

  0  0  0  0  0  0  0  0  0  0999 V3000
M  V30 BEGIN CTAB
M  V30 COUNTS 63 66 0 0 0
M  V30 BEGIN ATOM
M  V30 1 O 2.289690 0.095311 1.790265 0
M  V30 2 C 2.131867 -0.269376 0.630975 0
M  V30 3 N 1.538648 0.512165 -0.340327 0
M  V30 4 C 0.903927 1.788631 0.002408 0 CFG=1
M  V30 5 C 0.973917 2.752087 -1.203360 0
M  V30 6 C 0.528538 4.161228 -0.894012 0
M  V30 7 C -0.677022 4.657861 -1.407356 0
M  V30 8 C -1.093554 5.955409 -1.105742 0
M  V30 9 C -0.308625 6.769947 -0.292323 0
M  V30 10 C 0.894510 6.288565 0.219322 0
M  V30 11 C 1.312328 4.991085 -0.080055 0
M  V30 12 C -0.510921 1.592438 0.602283 0
M  V30 13 P -1.814450 0.967333 -0.560659 0
M  V30 14 C -1.360372 -0.784285 -0.782134 0
M  V30 15 C -1.238832 -1.680730 0.289069 0
M  V30 16 C -0.896827 -3.017236 0.066998 0
M  V30 17 C -0.664882 -3.473246 -1.228237 0
M  V30 18 C -0.778150 -2.595196 -2.303127 0
M  V30 19 C -1.127473 -1.260477 -2.082147 0
M  V30 20 C -3.314501 0.826104 0.479414 0
M  V30 21 C -3.518185 1.600232 1.630578 0
M  V30 22 C -4.689182 1.476423 2.386853 0
M  V30 23 C -5.684511 0.585490 1.997593 0
M  V30 24 C -5.513913 -0.176343 0.846866 0
M  V30 25 C -4.343850 -0.050919 0.092223 0
M  V30 26 C 2.549972 -1.639305 0.218762 0
M  V30 27 C 2.648598 -2.626572 1.207988 0
M  V30 28 C 3.005652 -3.942810 0.877804 0
M  V30 29 C 3.053413 -5.006603 1.948822 0
M  V30 30 F 1.818090 -5.506637 2.226034 0
M  V30 31 F 3.821325 -6.076880 1.602991 0
M  V30 32 F 3.553217 -4.554102 3.130248 0
M  V30 33 C 3.264647 -4.257439 -0.466500 0
M  V30 34 C 3.197576 -3.273784 -1.468018 0
M  V30 35 C 3.452289 -3.629442 -2.913820 0
M  V30 36 F 3.941907 -2.587648 -3.640637 0
M  V30 37 F 2.316716 -4.029207 -3.549278 0
M  V30 38 F 4.345877 -4.644731 -3.063991 0
M  V30 39 C 2.840074 -1.962445 -1.112663 0
M  V30 40 H 1.171727 0.039475 -1.156047 0
M  V30 41 H 1.514323 2.223914 0.805536 0
M  V30 42 H 0.409052 2.351869 -2.054536 0
M  V30 43 H 2.011706 2.802937 -1.562325 0
M  V30 44 H -1.305023 4.038048 -2.043600 0
M  V30 45 H -2.031947 6.330385 -1.506141 0
M  V30 46 H -0.633710 7.780274 -0.058699 0
M  V30 47 H 1.508872 6.924036 0.851918 0
M  V30 48 H 2.255851 4.632349 0.326547 0
M  V30 49 H -0.841035 2.566258 0.979462 0
M  V30 50 H -0.449312 0.930271 1.473630 0
M  V30 51 H -1.421202 -1.352602 1.310757 0
M  V30 52 H -0.817306 -3.701651 0.908253 0
M  V30 53 H -0.404672 -4.514541 -1.400341 0
M  V30 54 H -0.607136 -2.952613 -3.315900 0
M  V30 55 H -1.228696 -0.598098 -2.940061 0
M  V30 56 H -2.780034 2.322577 1.965476 0
M  V30 57 H -4.822812 2.083485 3.278744 0
M  V30 58 H -6.593626 0.491357 2.585207 0
M  V30 59 H -6.290400 -0.867647 0.530294 0
M  V30 60 H -4.246702 -0.654593 -0.808423 0
M  V30 61 H 2.428840 -2.369320 2.245319 0
M  V30 62 H 3.525803 -5.282491 -0.737621 0
M  V30 63 H 2.799912 -1.198576 -1.886875 0
M  V30 END ATOM
M  V30 BEGIN BOND
M  V30 1 2 1 2
M  V30 2 1 2 3
M  V30 3 1 3 4
M  V30 4 1 4 5
M  V30 5 1 5 6
M  V30 6 2 6 7
M  V30 7 1 7 8
M  V30 8 2 8 9
M  V30 9 1 9 10
M  V30 10 2 10 11
M  V30 11 1 4 12
M  V30 12 1 12 13
M  V30 13 1 13 14
M  V30 14 2 14 15
M  V30 15 1 15 16
M  V30 16 2 16 17
M  V30 17 1 17 18
M  V30 18 2 18 19
M  V30 19 1 13 20
M  V30 20 2 20 21
M  V30 21 1 21 22
M  V30 22 2 22 23
M  V30 23 1 23 24
M  V30 24 2 24 25
M  V30 25 1 2 26
M  V30 26 2 26 27
M  V30 27 1 27 28
M  V30 28 1 28 29
M  V30 29 1 29 30
M  V30 30 1 29 31
M  V30 31 1 29 32
M  V30 32 2 28 33
M  V30 33 1 33 34
M  V30 34 1 34 35
M  V30 35 1 35 36
M  V30 36 1 35 37
M  V30 37 1 35 38
M  V30 38 2 34 39
M  V30 39 1 11 6
M  V30 40 1 19 14
M  V30 41 1 25 20
M  V30 42 1 39 26
M  V30 43 1 3 40
M  V30 44 1 4 41 CFG=1
M  V30 45 1 5 42
M  V30 46 1 5 43
M  V30 47 1 7 44
M  V30 48 1 8 45
M  V30 49 1 9 46
M  V30 50 1 10 47
M  V30 51 1 11 48
M  V30 52 1 12 49
M  V30 53 1 12 50
M  V30 54 1 15 51
M  V30 55 1 16 52
M  V30 56 1 17 53
M  V30 57 1 18 54
M  V30 58 1 19 55
M  V30 59 1 21 56
M  V30 60 1 22 57
M  V30 61 1 23 58
M  V30 62 1 24 59
M  V30 63 1 25 60
M  V30 64 1 27 61
M  V30 65 1 33 62
M  V30 66 1 39 63
M  V30 END BOND
M  V30 END CTAB
M  END
>  <catalyst_id>  (1) 
HVIMAUDWZHMYEE_VWLOTQADSA_NONE

>  <source_smiles>  (1) 
O=C(N[C@@H](Cc1ccccc1)CP(c1ccccc1)c1ccccc1)c1cc(C(F)(F)F)cc(C(F)(F)F)c1

>  <axial_configuration>  (1) 
none

>  <inchikey>  (1) 
HVIMAUDWZHMYEE-VWLOTQADSA-N

>  <build_source>  (1) 
smiles

>  <rdkit_version>  (1) 
2025.09.6

>  <random_seed>  (1) 
42

>  <generated_at>  (1) 
2026-05-19T12:34:19

$$$$
