catalyst185
     RDKit          3D

  0  0  0  0  0  0  0  0  0  0999 V3000
M  V30 BEGIN CTAB
M  V30 COUNTS 57 61 0 0 0
M  V30 BEGIN ATOM
M  V30 1 C 5.114987 -3.026840 -0.584731 0
M  V30 2 C 3.989390 -2.338486 -0.354214 0
M  V30 3 C 3.720288 -0.954668 -0.897253 0 CFG=1
M  V30 4 C 2.410183 -0.898058 -1.727310 0
M  V30 5 N 1.467990 0.137726 -1.223330 0
M  V30 6 C 2.146636 1.454053 -1.288750 0
M  V30 7 C 3.447115 1.477526 -0.471413 0
M  V30 8 C 3.641682 0.115785 0.219277 0 CFG=1
M  V30 9 C 2.399050 -0.103288 1.101494 0
M  V30 10 C 1.139361 -0.201698 0.207594 0 CFG=1
M  V30 11 C -0.060816 0.639574 0.776912 0 CFG=1
M  V30 12 N -1.043620 0.912545 -0.265320 0
M  V30 13 C -1.933799 1.957164 -0.177607 0
M  V30 14 O -2.069669 2.649874 0.824980 0
M  V30 15 C -2.759168 2.228381 -1.386619 0
M  V30 16 C -4.033814 2.779793 -1.203039 0
M  V30 17 C -4.847100 3.054066 -2.303782 0
M  V30 18 C -4.387149 2.787752 -3.592671 0
M  V30 19 C -3.112569 2.254163 -3.783928 0
M  V30 20 C -2.295298 1.976991 -2.684785 0
M  V30 21 C -0.689735 -0.004696 2.010380 0
M  V30 22 C -0.513079 0.658098 3.234294 0
M  V30 23 C -1.028880 0.096776 4.383595 0
M  V30 24 N -1.695548 -1.071038 4.410160 0
M  V30 25 C -1.900032 -1.707052 3.247043 0
M  V30 26 C -2.612654 -2.897708 3.290614 0
M  V30 27 C -2.891077 -3.638020 2.141864 0
M  V30 28 C -2.450311 -3.178198 0.912032 0
M  V30 29 C -1.729504 -1.985596 0.841831 0
M  V30 30 C -1.428078 -1.224603 2.000696 0
M  V30 31 H 5.923747 -2.621380 -1.184844 0
M  V30 32 H 5.252202 -4.020890 -0.169029 0
M  V30 33 H 3.215280 -2.801684 0.255234 0
M  V30 34 H 4.547403 -0.676901 -1.566444 0
M  V30 35 H 2.651908 -0.677727 -2.775635 0
M  V30 36 H 1.899988 -1.869815 -1.752215 0
M  V30 37 H 1.473745 2.248420 -0.945747 0
M  V30 38 H 2.364070 1.698834 -2.336201 0
M  V30 39 H 3.403269 2.278140 0.276689 0
M  V30 40 H 4.299272 1.694505 -1.126483 0
M  V30 41 H 4.552030 0.124673 0.829076 0
M  V30 42 H 2.504673 -1.018143 1.695835 0
M  V30 43 H 2.319894 0.724589 1.816494 0
M  V30 44 H 0.828939 -1.253658 0.200382 0
M  V30 45 H 0.330180 1.627369 1.057816 0
M  V30 46 H -0.845610 0.479074 -1.156977 0
M  V30 47 H -4.395825 2.991950 -0.198673 0
M  V30 48 H -5.837105 3.477363 -2.153738 0
M  V30 49 H -5.020274 3.004341 -4.449725 0
M  V30 50 H -2.751781 2.061926 -4.791474 0
M  V30 51 H -1.295407 1.593804 -2.864384 0
M  V30 52 H 0.007628 1.608864 3.294085 0
M  V30 53 H -0.915072 0.587535 5.345745 0
M  V30 54 H -2.967979 -3.257632 4.253781 0
M  V30 55 H -3.456185 -4.562990 2.214925 0
M  V30 56 H -2.669121 -3.738358 0.006832 0
M  V30 57 H -1.414651 -1.652523 -0.142252 0
M  V30 END ATOM
M  V30 BEGIN BOND
M  V30 1 2 1 2
M  V30 2 1 2 3
M  V30 3 1 3 4
M  V30 4 1 4 5
M  V30 5 1 5 6
M  V30 6 1 6 7
M  V30 7 1 7 8
M  V30 8 1 8 9
M  V30 9 1 9 10
M  V30 10 1 10 11
M  V30 11 1 11 12
M  V30 12 1 12 13
M  V30 13 2 13 14
M  V30 14 1 13 15
M  V30 15 2 15 16
M  V30 16 1 16 17
M  V30 17 2 17 18
M  V30 18 1 18 19
M  V30 19 2 19 20
M  V30 20 1 11 21
M  V30 21 2 21 22
M  V30 22 1 22 23
M  V30 23 2 23 24
M  V30 24 1 24 25
M  V30 25 2 25 26
M  V30 26 1 26 27
M  V30 27 2 27 28
M  V30 28 1 28 29
M  V30 29 2 29 30
M  V30 30 1 8 3
M  V30 31 1 20 15
M  V30 32 1 30 21
M  V30 33 1 10 5
M  V30 34 1 30 25
M  V30 35 1 1 31
M  V30 36 1 1 32
M  V30 37 1 2 33
M  V30 38 1 3 34 CFG=3
M  V30 39 1 4 35
M  V30 40 1 4 36
M  V30 41 1 6 37
M  V30 42 1 6 38
M  V30 43 1 7 39
M  V30 44 1 7 40
M  V30 45 1 8 41 CFG=1
M  V30 46 1 9 42
M  V30 47 1 9 43
M  V30 48 1 10 44 CFG=3
M  V30 49 1 11 45 CFG=1
M  V30 50 1 12 46
M  V30 51 1 16 47
M  V30 52 1 17 48
M  V30 53 1 18 49
M  V30 54 1 19 50
M  V30 55 1 20 51
M  V30 56 1 22 52
M  V30 57 1 23 53
M  V30 58 1 26 54
M  V30 59 1 27 55
M  V30 60 1 28 56
M  V30 61 1 29 57
M  V30 END BOND
M  V30 END CTAB
M  END
>  <catalyst_id>  (1) 
LUDJVVHYLPTLOW_IYNDAXALSA_NONE

>  <source_smiles>  (1) 
C=C[C@H]1CN2CC[C@H]1C[C@H]2[C@@H](NC(=O)c1ccccc1)c1ccnc2ccccc12

>  <axial_configuration>  (1) 
none

>  <inchikey>  (1) 
LUDJVVHYLPTLOW-IYNDAXALSA-N

>  <build_source>  (1) 
smiles

>  <rdkit_version>  (1) 
2025.09.6

>  <random_seed>  (1) 
42

>  <generated_at>  (1) 
2026-05-19T12:34:44

$$$$
