catalyst287
     RDKit          3D

  0  0  0  0  0  0  0  0  0  0999 V3000
M  V30 BEGIN CTAB
M  V30 COUNTS 77 79 0 0 0
M  V30 BEGIN ATOM
M  V30 1 C -4.112887 6.107356 -2.040377 0
M  V30 2 C -3.029528 5.432845 -1.256232 0
M  V30 3 O -2.278582 6.003879 -0.479594 0
M  V30 4 O -3.014776 4.100561 -1.535605 0
M  V30 5 C -2.022398 3.361341 -0.813680 0
M  V30 6 C -2.063931 1.873166 -1.199394 0 CFG=1
M  V30 7 O -0.951459 1.235996 -0.563201 0
M  V30 8 C -0.819307 -0.126766 -0.953465 0 CFG=1
M  V30 9 N 0.456280 -0.538981 -0.409989 0
M  V30 10 C 1.386106 -1.351533 -0.976766 0
M  V30 11 S 1.313313 -2.008059 -2.510745 0
M  V30 12 N 2.479422 -1.636672 -0.225106 0
M  V30 13 C 2.881530 -1.152384 1.102588 0 CFG=1
M  V30 14 C 2.036304 -1.810750 2.211499 0
M  V30 15 C 2.746294 -1.892202 3.564651 0
M  V30 16 C 3.739521 -0.755942 3.750397 0
M  V30 17 C 4.844086 -0.778579 2.689332 0
M  V30 18 C 4.399874 -1.414408 1.351829 0 CFG=2
M  V30 19 N 5.242240 -1.092101 0.184127 0
M  V30 20 C 6.658533 -1.412494 0.336091 0
M  V30 21 C 7.252130 -0.826054 -0.932998 0
M  V30 22 C 6.378396 0.382952 -1.247364 0
M  V30 23 C 5.193156 0.289286 -0.291767 0
M  V30 24 C -2.003363 -0.933431 -0.386144 0 CFG=2
M  V30 25 O -1.953361 -2.308562 -0.831979 0
M  V30 26 C -1.417766 -3.204750 0.040478 0
M  V30 27 C -1.415067 -4.573552 -0.568142 0
M  V30 28 O -1.025070 -2.954235 1.170376 0
M  V30 29 C -3.311864 -0.324366 -0.923447 0 CFG=1
M  V30 30 O -4.490642 -0.988509 -0.384425 0
M  V30 31 C -4.732574 -0.903551 0.953060 0
M  V30 32 C -6.004435 -1.616731 1.292401 0
M  V30 33 O -4.013538 -0.341547 1.765521 0
M  V30 34 C -3.398142 1.212120 -0.793769 0 CFG=2
M  V30 35 O -4.423462 1.683762 -1.706274 0
M  V30 36 C -5.674274 1.862738 -1.206600 0
M  V30 37 C -6.584776 2.365298 -2.284611 0
M  V30 38 O -6.022448 1.647818 -0.055990 0
M  V30 39 H -4.094447 7.181380 -1.834497 0
M  V30 40 H -3.946076 5.956205 -3.109860 0
M  V30 41 H -5.086664 5.710564 -1.742684 0
M  V30 42 H -1.027650 3.763354 -1.045293 0
M  V30 43 H -2.184047 3.472112 0.266254 0
M  V30 44 H -1.943535 1.811206 -2.289950 0
M  V30 45 H -0.788020 -0.196485 -2.045938 0
M  V30 46 H 0.617863 -0.220696 0.530094 0
M  V30 47 H 3.212391 -2.130481 -0.728039 0
M  V30 48 H 2.703400 -0.069078 1.115417 0
M  V30 49 H 1.104193 -1.246843 2.335416 0
M  V30 50 H 1.735565 -2.824523 1.917959 0
M  V30 51 H 2.002585 -1.881638 4.369597 0
M  V30 52 H 3.274703 -2.850677 3.642930 0
M  V30 53 H 3.204633 0.200780 3.696191 0
M  V30 54 H 4.189407 -0.804119 4.748588 0
M  V30 55 H 5.697870 -1.346431 3.080963 0
M  V30 56 H 5.199842 0.248512 2.554886 0
M  V30 57 H 4.496812 -2.504274 1.472127 0
M  V30 58 H 7.106013 -0.925038 1.209951 0
M  V30 59 H 6.837628 -2.490129 0.400756 0
M  V30 60 H 7.189616 -1.549822 -1.754869 0
M  V30 61 H 8.303918 -0.551233 -0.807249 0
M  V30 62 H 6.927641 1.318292 -1.095579 0
M  V30 63 H 6.051661 0.350054 -2.292752 0
M  V30 64 H 5.324327 1.016070 0.516963 0
M  V30 65 H 4.258476 0.521209 -0.811242 0
M  V30 66 H -1.987957 -0.879515 0.706514 0
M  V30 67 H -0.813590 -5.243878 0.052450 0
M  V30 68 H -2.437632 -4.954686 -0.620575 0
M  V30 69 H -0.967727 -4.541692 -1.564706 0
M  V30 70 H -3.367886 -0.565505 -1.994378 0
M  V30 71 H -6.223212 -1.480897 2.355359 0
M  V30 72 H -6.831647 -1.197762 0.713843 0
M  V30 73 H -5.894602 -2.684718 1.089041 0
M  V30 74 H -3.637695 1.508354 0.232632 0
M  V30 75 H -7.581652 2.534340 -1.867567 0
M  V30 76 H -6.207512 3.313204 -2.676619 0
M  V30 77 H -6.660529 1.621529 -3.081656 0
M  V30 END ATOM
M  V30 BEGIN BOND
M  V30 1 1 1 2
M  V30 2 2 2 3
M  V30 3 1 2 4
M  V30 4 1 4 5
M  V30 5 1 5 6
M  V30 6 1 6 7
M  V30 7 1 7 8
M  V30 8 1 8 9
M  V30 9 1 9 10
M  V30 10 2 10 11
M  V30 11 1 10 12
M  V30 12 1 12 13
M  V30 13 1 13 14
M  V30 14 1 14 15
M  V30 15 1 15 16
M  V30 16 1 16 17
M  V30 17 1 17 18
M  V30 18 1 18 19
M  V30 19 1 19 20
M  V30 20 1 20 21
M  V30 21 1 21 22
M  V30 22 1 22 23
M  V30 23 1 8 24
M  V30 24 1 24 25
M  V30 25 1 25 26
M  V30 26 1 26 27
M  V30 27 2 26 28
M  V30 28 1 24 29
M  V30 29 1 29 30
M  V30 30 1 30 31
M  V30 31 1 31 32
M  V30 32 2 31 33
M  V30 33 1 29 34
M  V30 34 1 34 35
M  V30 35 1 35 36
M  V30 36 1 36 37
M  V30 37 2 36 38
M  V30 38 1 34 6
M  V30 39 1 18 13
M  V30 40 1 23 19
M  V30 41 1 1 39
M  V30 42 1 1 40
M  V30 43 1 1 41
M  V30 44 1 5 42
M  V30 45 1 5 43
M  V30 46 1 6 44 CFG=3
M  V30 47 1 8 45 CFG=3
M  V30 48 1 9 46
M  V30 49 1 12 47
M  V30 50 1 13 48 CFG=3
M  V30 51 1 14 49
M  V30 52 1 14 50
M  V30 53 1 15 51
M  V30 54 1 15 52
M  V30 55 1 16 53
M  V30 56 1 16 54
M  V30 57 1 17 55
M  V30 58 1 17 56
M  V30 59 1 18 57 CFG=1
M  V30 60 1 20 58
M  V30 61 1 20 59
M  V30 62 1 21 60
M  V30 63 1 21 61
M  V30 64 1 22 62
M  V30 65 1 22 63
M  V30 66 1 23 64
M  V30 67 1 23 65
M  V30 68 1 24 66 CFG=1
M  V30 69 1 27 67
M  V30 70 1 27 68
M  V30 71 1 27 69
M  V30 72 1 29 70 CFG=3
M  V30 73 1 32 71
M  V30 74 1 32 72
M  V30 75 1 32 73
M  V30 76 1 34 74 CFG=1
M  V30 77 1 37 75
M  V30 78 1 37 76
M  V30 79 1 37 77
M  V30 END BOND
M  V30 END CTAB
M  END
>  <catalyst_id>  (1) 
QTWSSJFYKFDQAA_HOASPINLSA_NONE

>  <source_smiles>  (1) 
CC(=O)OC[C@H]1O[C@@H](NC(=S)N[C@H]2CCCC[C@@H]2N2CCCC2)[C@H](OC(C)=O)[C@@H](OC(C)=O)[C@@H]1OC(C)=O

>  <axial_configuration>  (1) 
none

>  <inchikey>  (1) 
QTWSSJFYKFDQAA-HOASPINLSA-N

>  <build_source>  (1) 
smiles

>  <rdkit_version>  (1) 
2025.09.6

>  <random_seed>  (1) 
42

>  <generated_at>  (1) 
2026-05-19T12:33:14

$$$$
