catalyst278
     RDKit          3D

  0  0  0  0  0  0  0  0  0  0999 V3000
M  V30 BEGIN CTAB
M  V30 COUNTS 98 104 0 0 0
M  V30 BEGIN ATOM
M  V30 1 C -5.973207 -1.033272 -5.311252 0
M  V30 2 C -5.295590 -0.872796 -4.167131 0
M  V30 3 C -3.922670 -1.449239 -3.911357 0 CFG=1
M  V30 4 C -2.895788 -0.356750 -3.508845 0
M  V30 5 N -2.245946 -0.650761 -2.202431 0
M  V30 6 C -1.545989 -1.953000 -2.316679 0
M  V30 7 C -2.500173 -3.091713 -2.706873 0
M  V30 8 C -3.934039 -2.542370 -2.813721 0 CFG=1
M  V30 9 C -4.267575 -1.935470 -1.438403 0
M  V30 10 C -3.334443 -0.732645 -1.163288 0 CFG=1
M  V30 11 C -2.764251 -0.737593 0.299002 0 CFG=1
M  V30 12 N -1.621235 0.165542 0.403759 0
M  V30 13 C -0.694834 -0.003267 1.399422 0
M  V30 14 O -0.758404 -0.861929 2.266546 0
M  V30 15 N 0.302221 0.928396 1.292094 0
M  V30 16 C 1.338210 1.047351 2.291664 0 CFG=1
M  V30 17 N 2.538818 1.394609 1.577202 0
M  V30 18 C 3.752894 0.847756 1.844077 0
M  V30 19 O 4.002411 0.073699 2.754245 0
M  V30 20 O 4.643038 1.307583 0.933510 0
M  V30 21 C 5.963813 0.762394 1.031679 0
M  V30 22 C 6.119532 -0.378152 0.047964 0
M  V30 23 C 6.062715 -1.681281 0.564284 0
M  V30 24 C 6.199078 -2.803278 -0.253343 0
M  V30 25 C 6.139714 -4.084680 0.322362 0
M  V30 26 C 6.277565 -5.230332 -0.455126 0
M  V30 27 C 6.476209 -5.105702 -1.820286 0
M  V30 28 C 6.532792 -3.835152 -2.402382 0
M  V30 29 C 6.394868 -2.641495 -1.644667 0
M  V30 30 C 6.434785 -1.311239 -2.198844 0
M  V30 31 C 6.613653 -1.060272 -3.584380 0
M  V30 32 C 6.638147 0.227978 -4.121152 0
M  V30 33 C 6.479705 1.317891 -3.286941 0
M  V30 34 C 6.304720 1.114122 -1.919746 0
M  V30 35 C 6.285760 -0.180132 -1.344832 0
M  V30 36 C 0.990181 2.089808 3.416149 0
M  V30 37 C -0.302601 1.690913 4.158339 0
M  V30 38 C 0.798156 3.509022 2.842438 0
M  V30 39 C 2.122232 2.142757 4.464759 0
M  V30 40 C -3.829381 -0.422611 1.347805 0
M  V30 41 C -4.218098 -1.468614 2.197583 0
M  V30 42 C -5.193704 -1.236617 3.144339 0
M  V30 43 N -5.812374 -0.052679 3.304385 0
M  V30 44 C -5.435887 0.966646 2.518786 0
M  V30 45 C -6.064232 2.187849 2.714934 0
M  V30 46 C -5.746085 3.321974 1.961850 0
M  V30 47 C -4.769001 3.240616 0.982239 0
M  V30 48 O -4.346965 4.259611 0.175018 0
M  V30 49 C -4.965798 5.526431 0.364332 0
M  V30 50 C -4.128694 2.017062 0.768108 0
M  V30 51 C -4.442887 0.853617 1.517657 0
M  V30 52 H -5.570774 -1.605262 -6.141603 0
M  V30 53 H -6.957401 -0.592206 -5.439498 0
M  V30 54 H -5.753095 -0.286233 -3.372236 0
M  V30 55 H -3.562345 -1.914368 -4.840272 0
M  V30 56 H -2.120111 -0.281921 -4.282593 0
M  V30 57 H -3.354146 0.640024 -3.469251 0
M  V30 58 H -0.744760 -1.870682 -3.062069 0
M  V30 59 H -1.035560 -2.195589 -1.377559 0
M  V30 60 H -2.455547 -3.889716 -1.956051 0
M  V30 61 H -2.191221 -3.530793 -3.662979 0
M  V30 62 H -4.633401 -3.349060 -3.060288 0
M  V30 63 H -4.158322 -2.711381 -0.671022 0
M  V30 64 H -5.313354 -1.608948 -1.404861 0
M  V30 65 H -3.933098 0.179193 -1.279711 0
M  V30 66 H -2.363242 -1.741824 0.494183 0
M  V30 67 H -1.209014 0.365034 -0.501114 0
M  V30 68 H 0.042483 1.760054 0.788204 0
M  V30 69 H 1.484877 0.065826 2.759922 0
M  V30 70 H 2.477601 1.947881 0.739369 0
M  V30 71 H 6.680169 1.560347 0.806540 0
M  V30 72 H 6.211555 0.450878 2.054567 0
M  V30 73 H 5.901022 -1.816412 1.634655 0
M  V30 74 H 5.982907 -4.199115 1.393566 0
M  V30 75 H 6.229313 -6.212594 0.006304 0
M  V30 76 H 6.586101 -5.992083 -2.439318 0
M  V30 77 H 6.688009 -3.798991 -3.476479 0
M  V30 78 H 6.736896 -1.878975 -4.287369 0
M  V30 79 H 6.776533 0.370084 -5.189459 0
M  V30 80 H 6.489726 2.325839 -3.692134 0
M  V30 81 H 6.172271 2.000283 -1.303723 0
M  V30 82 H -0.229784 0.674229 4.559638 0
M  V30 83 H -0.497436 2.363846 5.001742 0
M  V30 84 H -1.179819 1.741019 3.505099 0
M  V30 85 H 1.696837 3.859897 2.324073 0
M  V30 86 H -0.037222 3.550270 2.135673 0
M  V30 87 H 0.581552 4.228182 3.641137 0
M  V30 88 H 3.054295 2.527343 4.038001 0
M  V30 89 H 2.321046 1.148898 4.880765 0
M  V30 90 H 1.858105 2.802735 5.299415 0
M  V30 91 H -3.757611 -2.450001 2.136468 0
M  V30 92 H -5.513611 -2.022591 3.822295 0
M  V30 93 H -6.827525 2.261383 3.487044 0
M  V30 94 H -6.278564 4.242072 2.175438 0
M  V30 95 H -6.039257 5.476528 0.153939 0
M  V30 96 H -4.519043 6.226260 -0.348450 0
M  V30 97 H -4.777044 5.911333 1.371969 0
M  V30 98 H -3.360356 1.988717 0.000639 0
M  V30 END ATOM
M  V30 BEGIN BOND
M  V30 1 2 1 2
M  V30 2 1 2 3
M  V30 3 1 3 4
M  V30 4 1 4 5
M  V30 5 1 5 6
M  V30 6 1 6 7
M  V30 7 1 7 8
M  V30 8 1 8 9
M  V30 9 1 9 10
M  V30 10 1 10 11
M  V30 11 1 11 12
M  V30 12 1 12 13
M  V30 13 2 13 14
M  V30 14 1 13 15
M  V30 15 1 15 16
M  V30 16 1 16 17
M  V30 17 1 17 18
M  V30 18 2 18 19
M  V30 19 1 18 20
M  V30 20 1 20 21
M  V30 21 1 21 22
M  V30 22 2 22 23
M  V30 23 1 23 24
M  V30 24 2 24 25
M  V30 25 1 25 26
M  V30 26 2 26 27
M  V30 27 1 27 28
M  V30 28 2 28 29
M  V30 29 1 29 30
M  V30 30 2 30 31
M  V30 31 1 31 32
M  V30 32 2 32 33
M  V30 33 1 33 34
M  V30 34 2 34 35
M  V30 35 1 16 36
M  V30 36 1 36 37
M  V30 37 1 36 38
M  V30 38 1 36 39
M  V30 39 1 11 40
M  V30 40 2 40 41
M  V30 41 1 41 42
M  V30 42 2 42 43
M  V30 43 1 43 44
M  V30 44 2 44 45
M  V30 45 1 45 46
M  V30 46 2 46 47
M  V30 47 1 47 48
M  V30 48 1 48 49
M  V30 49 1 47 50
M  V30 50 2 50 51
M  V30 51 1 8 3
M  V30 52 1 35 22
M  V30 53 1 51 40
M  V30 54 1 10 5
M  V30 55 1 29 24
M  V30 56 1 35 30
M  V30 57 1 51 44
M  V30 58 1 1 52
M  V30 59 1 1 53
M  V30 60 1 2 54
M  V30 61 1 3 55 CFG=3
M  V30 62 1 4 56
M  V30 63 1 4 57
M  V30 64 1 6 58
M  V30 65 1 6 59
M  V30 66 1 7 60
M  V30 67 1 7 61
M  V30 68 1 8 62 CFG=3
M  V30 69 1 9 63
M  V30 70 1 9 64
M  V30 71 1 10 65 CFG=1
M  V30 72 1 11 66 CFG=1
M  V30 73 1 12 67
M  V30 74 1 15 68
M  V30 75 1 16 69 CFG=1
M  V30 76 1 17 70
M  V30 77 1 21 71
M  V30 78 1 21 72
M  V30 79 1 23 73
M  V30 80 1 25 74
M  V30 81 1 26 75
M  V30 82 1 27 76
M  V30 83 1 28 77
M  V30 84 1 31 78
M  V30 85 1 32 79
M  V30 86 1 33 80
M  V30 87 1 34 81
M  V30 88 1 37 82
M  V30 89 1 37 83
M  V30 90 1 37 84
M  V30 91 1 38 85
M  V30 92 1 38 86
M  V30 93 1 38 87
M  V30 94 1 39 88
M  V30 95 1 39 89
M  V30 96 1 39 90
M  V30 97 1 41 91
M  V30 98 1 42 92
M  V30 99 1 45 93
M  V30 100 1 46 94
M  V30 101 1 49 95
M  V30 102 1 49 96
M  V30 103 1 49 97
M  V30 104 1 50 98
M  V30 END BOND
M  V30 END CTAB
M  END
>  <catalyst_id>  (1) 
QLSZWZJQLKOBFQ_QMJLZFPGSA_NONE

>  <source_smiles>  (1) 
C=C[C@H]1CN2CC[C@H]1C[C@H]2[C@@H](NC(=O)N[C@@H](NC(=O)OCc1cc2ccccc2c2ccccc12)C(C)(C)C)c1ccnc2ccc(OC)cc12

>  <axial_configuration>  (1) 
none

>  <inchikey>  (1) 
QLSZWZJQLKOBFQ-QMJLZFPGSA-N

>  <build_source>  (1) 
smiles

>  <rdkit_version>  (1) 
2025.09.6

>  <random_seed>  (1) 
42

>  <generated_at>  (1) 
2026-05-19T12:34:30

$$$$
