catalyst399
     RDKit          3D

  0  0  0  0  0  0  0  0  0  0999 V3000
M  V30 BEGIN CTAB
M  V30 COUNTS 61 65 0 0 0
M  V30 BEGIN ATOM
M  V30 1 C 5.221637 -0.438312 1.360866 0
M  V30 2 C 4.063672 -0.114738 0.770516 0
M  V30 3 C 3.928589 0.221916 -0.695688 0 CFG=1
M  V30 4 C 2.919878 -0.711752 -1.413952 0
M  V30 5 N 1.981330 0.045957 -2.280983 0
M  V30 6 C 2.771752 0.891209 -3.203993 0
M  V30 7 C 3.583939 1.953153 -2.448047 0
M  V30 8 C 3.483450 1.686638 -0.936420 0 CFG=1
M  V30 9 C 2.001177 1.844147 -0.546320 0
M  V30 10 C 1.114309 0.930187 -1.437694 0 CFG=2
M  V30 11 C 0.007361 0.178785 -0.595210 0 CFG=1
M  V30 12 N -0.931584 1.145509 -0.017248 0
M  V30 13 C -0.905446 1.492434 1.315118 0
M  V30 14 O -0.069110 1.075802 2.107889 0
M  V30 15 C -1.991557 2.396650 1.781520 0
M  V30 16 C -2.587897 3.340355 0.934840 0
M  V30 17 C -3.603073 4.168904 1.419288 0
M  V30 18 C -4.019221 4.063240 2.746603 0
M  V30 19 C -3.417831 3.135744 3.596570 0
M  V30 20 C -2.402522 2.306644 3.117249 0
M  V30 21 C -0.825741 -0.871252 -1.338561 0
M  V30 22 C -1.060868 -0.744423 -2.714449 0
M  V30 23 C -1.833358 -1.691440 -3.355850 0
M  V30 24 N -2.407267 -2.736288 -2.733722 0
M  V30 25 C -2.211554 -2.866971 -1.414140 0
M  V30 26 C -2.816100 -3.944857 -0.784274 0
M  V30 27 C -2.692223 -4.172319 0.589193 0
M  V30 28 C -1.944880 -3.298061 1.363000 0
M  V30 29 O -1.741026 -3.387867 2.711177 0
M  V30 30 C -2.335828 -4.491822 3.381387 0
M  V30 31 C -1.326323 -2.206973 0.744925 0
M  V30 32 C -1.435266 -1.964456 -0.649495 0
M  V30 33 H 6.156451 -0.475858 0.810827 0
M  V30 34 H 5.254281 -0.672456 2.420957 0
M  V30 35 H 3.160387 -0.096626 1.379863 0
M  V30 36 H 4.909516 0.089497 -1.174845 0
M  V30 37 H 3.474841 -1.426068 -2.036804 0
M  V30 38 H 2.359551 -1.336177 -0.708002 0
M  V30 39 H 3.440970 0.259607 -3.801902 0
M  V30 40 H 2.105160 1.376326 -3.927723 0
M  V30 41 H 4.630916 1.922888 -2.771776 0
M  V30 42 H 3.201798 2.954935 -2.678499 0
M  V30 43 H 4.107963 2.393725 -0.379207 0
M  V30 44 H 1.881318 1.621370 0.516745 0
M  V30 45 H 1.694677 2.888835 -0.684162 0
M  V30 46 H 0.569190 1.593745 -2.125840 0
M  V30 47 H 0.543591 -0.326742 0.214709 0
M  V30 48 H -1.749699 1.368601 -0.566728 0
M  V30 49 H -2.258348 3.462590 -0.092406 0
M  V30 50 H -4.064981 4.903902 0.764471 0
M  V30 51 H -4.808253 4.710460 3.122192 0
M  V30 52 H -3.736390 3.058601 4.633170 0
M  V30 53 H -1.934128 1.586218 3.785330 0
M  V30 54 H -0.640066 0.064820 -3.300178 0
M  V30 55 H -2.017711 -1.631160 -4.424609 0
M  V30 56 H -3.407951 -4.633293 -1.383959 0
M  V30 57 H -3.194231 -5.035550 1.011592 0
M  V30 58 H -1.943479 -5.441628 3.003161 0
M  V30 59 H -3.427725 -4.456845 3.306639 0
M  V30 60 H -2.072326 -4.421134 4.441095 0
M  V30 61 H -0.753737 -1.538327 1.384088 0
M  V30 END ATOM
M  V30 BEGIN BOND
M  V30 1 2 1 2
M  V30 2 1 2 3
M  V30 3 1 3 4
M  V30 4 1 4 5
M  V30 5 1 5 6
M  V30 6 1 6 7
M  V30 7 1 7 8
M  V30 8 1 8 9
M  V30 9 1 9 10
M  V30 10 1 10 11
M  V30 11 1 11 12
M  V30 12 1 12 13
M  V30 13 2 13 14
M  V30 14 1 13 15
M  V30 15 2 15 16
M  V30 16 1 16 17
M  V30 17 2 17 18
M  V30 18 1 18 19
M  V30 19 2 19 20
M  V30 20 1 11 21
M  V30 21 2 21 22
M  V30 22 1 22 23
M  V30 23 2 23 24
M  V30 24 1 24 25
M  V30 25 2 25 26
M  V30 26 1 26 27
M  V30 27 2 27 28
M  V30 28 1 28 29
M  V30 29 1 29 30
M  V30 30 1 28 31
M  V30 31 2 31 32
M  V30 32 1 8 3
M  V30 33 1 20 15
M  V30 34 1 32 21
M  V30 35 1 10 5
M  V30 36 1 32 25
M  V30 37 1 1 33
M  V30 38 1 1 34
M  V30 39 1 2 35
M  V30 40 1 3 36 CFG=3
M  V30 41 1 4 37
M  V30 42 1 4 38
M  V30 43 1 6 39
M  V30 44 1 6 40
M  V30 45 1 7 41
M  V30 46 1 7 42
M  V30 47 1 8 43 CFG=1
M  V30 48 1 9 44
M  V30 49 1 9 45
M  V30 50 1 10 46 CFG=3
M  V30 51 1 11 47 CFG=1
M  V30 52 1 12 48
M  V30 53 1 16 49
M  V30 54 1 17 50
M  V30 55 1 18 51
M  V30 56 1 19 52
M  V30 57 1 20 53
M  V30 58 1 22 54
M  V30 59 1 23 55
M  V30 60 1 26 56
M  V30 61 1 27 57
M  V30 62 1 30 58
M  V30 63 1 30 59
M  V30 64 1 30 60
M  V30 65 1 31 61
M  V30 END BOND
M  V30 END CTAB
M  END
>  <catalyst_id>  (1) 
XMLHYUQBMGVFAZ_LXFCCGDJSA_NONE

>  <source_smiles>  (1) 
C=C[C@H]1CN2CC[C@H]1C[C@@H]2[C@@H](NC(=O)c1ccccc1)c1ccnc2ccc(OC)cc12

>  <axial_configuration>  (1) 
none

>  <inchikey>  (1) 
XMLHYUQBMGVFAZ-LXFCCGDJSA-N

>  <build_source>  (1) 
smiles

>  <rdkit_version>  (1) 
2025.09.6

>  <random_seed>  (1) 
42

>  <generated_at>  (1) 
2026-05-19T12:31:42

$$$$
