catalyst45
     RDKit          3D

  0  0  0  0  0  0  0  0  0  0999 V3000
M  V30 BEGIN CTAB
M  V30 COUNTS 89 94 0 0 0
M  V30 BEGIN ATOM
M  V30 1 C -5.598089 -1.887220 -1.442946 0
M  V30 2 N -4.231136 -1.534626 -1.058243 0
M  V30 3 C -3.536449 -2.704200 -0.525062 0
M  V30 4 C -4.177904 -0.315788 -0.189850 0 CFG=1
M  V30 5 C -4.858101 -0.461819 1.173697 0
M  V30 6 C -6.141500 0.080151 1.365331 0
M  V30 7 C -6.788605 -0.023836 2.598149 0
M  V30 8 C -6.164717 -0.671740 3.660356 0
M  V30 9 C -4.894689 -1.216065 3.490328 0
M  V30 10 C -4.245967 -1.112434 2.257519 0
M  V30 11 C -2.714242 0.292092 -0.096859 0 CFG=1
M  V30 12 N -2.008719 0.141643 -1.387365 0
M  V30 13 C -0.668416 -0.056315 -1.562659 0
M  V30 14 S -0.211676 -0.887758 -2.930838 0
M  V30 15 N 0.131891 0.428456 -0.589482 0
M  V30 16 P 1.723191 0.171284 -0.147569 0
M  V30 17 O 1.876118 0.539575 1.297781 0
M  V30 18 N 2.778130 0.950246 -1.153091 0
M  V30 19 C 2.377975 2.159859 -1.854650 0
M  V30 20 C 1.951009 3.278710 -0.930401 0
M  V30 21 C 0.774293 3.995944 -1.186189 0
M  V30 22 C 0.399885 5.058324 -0.362110 0
M  V30 23 C 1.190780 5.412165 0.728694 0
M  V30 24 C 2.363808 4.709705 0.991965 0
M  V30 25 C 2.746352 3.654695 0.162741 0
M  V30 26 C 3.397228 -0.049595 -2.039089 0 CFG=1
M  V30 27 C 4.801502 0.253728 -2.563373 0
M  V30 28 C 5.288509 -0.910001 -3.436645 0
M  V30 29 C 5.183260 -2.270303 -2.739657 0
M  V30 30 C 3.804030 -2.517863 -2.115585 0
M  V30 31 C 3.447385 -1.355600 -1.189454 0 CFG=2
M  V30 32 N 2.146452 -1.370511 -0.520867 0
M  V30 33 C 1.835046 -2.495748 0.339269 0
M  V30 34 C 2.900457 -2.945693 1.317798 0
M  V30 35 C 3.530678 -4.190193 1.150792 0
M  V30 36 C 4.512049 -4.625062 2.044381 0
M  V30 37 C 4.872393 -3.825980 3.125403 0
M  V30 38 C 4.246664 -2.596948 3.315077 0
M  V30 39 C 3.264630 -2.162983 2.420934 0
M  V30 40 C -2.744633 1.753427 0.332945 0
M  V30 41 C -3.184356 2.759932 -0.542474 0
M  V30 42 C -3.260703 4.087319 -0.119394 0
M  V30 43 C -2.888562 4.427358 1.179169 0
M  V30 44 C -2.435004 3.442371 2.053487 0
M  V30 45 C -2.366090 2.112673 1.635696 0
M  V30 46 H -6.197413 -2.239610 -0.596580 0
M  V30 47 H -5.586413 -2.679629 -2.200067 0
M  V30 48 H -6.108563 -1.032534 -1.900345 0
M  V30 49 H -3.459116 -3.475782 -1.299949 0
M  V30 50 H -4.053532 -3.149655 0.330991 0
M  V30 51 H -2.509551 -2.470295 -0.228410 0
M  V30 52 H -4.752179 0.438356 -0.748496 0
M  V30 53 H -6.647469 0.595677 0.551471 0
M  V30 54 H -7.779031 0.404313 2.728974 0
M  V30 55 H -6.667542 -0.751656 4.620453 0
M  V30 56 H -4.406984 -1.722935 4.319255 0
M  V30 57 H -3.256974 -1.552436 2.159262 0
M  V30 58 H -2.125402 -0.280999 0.629751 0
M  V30 59 H -2.565274 -0.365281 -2.072976 0
M  V30 60 H -0.275002 1.124425 0.015783 0
M  V30 61 H 1.572390 1.934602 -2.562883 0
M  V30 62 H 3.209233 2.559676 -2.447091 0
M  V30 63 H 0.138849 3.733570 -2.029182 0
M  V30 64 H -0.514212 5.607326 -0.569381 0
M  V30 65 H 0.892176 6.233310 1.374078 0
M  V30 66 H 2.982151 4.979102 1.843840 0
M  V30 67 H 3.664815 3.113014 0.381467 0
M  V30 68 H 2.737151 -0.208503 -2.901639 0
M  V30 69 H 5.497345 0.406794 -1.729230 0
M  V30 70 H 4.810192 1.170581 -3.162036 0
M  V30 71 H 6.326517 -0.732205 -3.739877 0
M  V30 72 H 4.691289 -0.937537 -4.356889 0
M  V30 73 H 5.946023 -2.326200 -1.952749 0
M  V30 74 H 5.410224 -3.067607 -3.456479 0
M  V30 75 H 3.054079 -2.622051 -2.909324 0
M  V30 76 H 3.826832 -3.467675 -1.575952 0
M  V30 77 H 4.232630 -1.247434 -0.427255 0
M  V30 78 H 1.564691 -3.343433 -0.303525 0
M  V30 79 H 0.918404 -2.285205 0.905628 0
M  V30 80 H 3.260143 -4.835280 0.317670 0
M  V30 81 H 4.992906 -5.588297 1.896438 0
M  V30 82 H 5.635708 -4.161238 3.822046 0
M  V30 83 H 4.518861 -1.970739 4.160840 0
M  V30 84 H 2.786238 -1.205159 2.603953 0
M  V30 85 H -3.475777 2.511866 -1.561126 0
M  V30 86 H -3.608575 4.856238 -0.804037 0
M  V30 87 H -2.944596 5.461153 1.509204 0
M  V30 88 H -2.137291 3.708344 3.064623 0
M  V30 89 H -2.022110 1.359652 2.342090 0
M  V30 END ATOM
M  V30 BEGIN BOND
M  V30 1 1 1 2
M  V30 2 1 2 3
M  V30 3 1 2 4
M  V30 4 1 4 5
M  V30 5 2 5 6
M  V30 6 1 6 7
M  V30 7 2 7 8
M  V30 8 1 8 9
M  V30 9 2 9 10
M  V30 10 1 4 11
M  V30 11 1 11 12
M  V30 12 1 12 13
M  V30 13 2 13 14
M  V30 14 1 13 15
M  V30 15 1 15 16
M  V30 16 2 16 17
M  V30 17 1 16 18
M  V30 18 1 18 19
M  V30 19 1 19 20
M  V30 20 2 20 21
M  V30 21 1 21 22
M  V30 22 2 22 23
M  V30 23 1 23 24
M  V30 24 2 24 25
M  V30 25 1 18 26
M  V30 26 1 26 27
M  V30 27 1 27 28
M  V30 28 1 28 29
M  V30 29 1 29 30
M  V30 30 1 30 31
M  V30 31 1 31 32
M  V30 32 1 32 33
M  V30 33 1 33 34
M  V30 34 2 34 35
M  V30 35 1 35 36
M  V30 36 2 36 37
M  V30 37 1 37 38
M  V30 38 2 38 39
M  V30 39 1 11 40
M  V30 40 2 40 41
M  V30 41 1 41 42
M  V30 42 2 42 43
M  V30 43 1 43 44
M  V30 44 2 44 45
M  V30 45 1 10 5
M  V30 46 1 32 16
M  V30 47 1 39 34
M  V30 48 1 45 40
M  V30 49 1 25 20
M  V30 50 1 31 26
M  V30 51 1 1 46
M  V30 52 1 1 47
M  V30 53 1 1 48
M  V30 54 1 3 49
M  V30 55 1 3 50
M  V30 56 1 3 51
M  V30 57 1 4 52 CFG=3
M  V30 58 1 6 53
M  V30 59 1 7 54
M  V30 60 1 8 55
M  V30 61 1 9 56
M  V30 62 1 10 57
M  V30 63 1 11 58 CFG=1
M  V30 64 1 12 59
M  V30 65 1 15 60
M  V30 66 1 19 61
M  V30 67 1 19 62
M  V30 68 1 21 63
M  V30 69 1 22 64
M  V30 70 1 23 65
M  V30 71 1 24 66
M  V30 72 1 25 67
M  V30 73 1 26 68 CFG=3
M  V30 74 1 27 69
M  V30 75 1 27 70
M  V30 76 1 28 71
M  V30 77 1 28 72
M  V30 78 1 29 73
M  V30 79 1 29 74
M  V30 80 1 30 75
M  V30 81 1 30 76
M  V30 82 1 31 77 CFG=1
M  V30 83 1 33 78
M  V30 84 1 33 79
M  V30 85 1 35 80
M  V30 86 1 36 81
M  V30 87 1 37 82
M  V30 88 1 38 83
M  V30 89 1 39 84
M  V30 90 1 41 85
M  V30 91 1 42 86
M  V30 92 1 43 87
M  V30 93 1 44 88
M  V30 94 1 45 89
M  V30 END BOND
M  V30 END CTAB
M  END
>  <catalyst_id>  (1) 
DQUHCQRAEODOBF_ZYADHFCISA_NONE

>  <source_smiles>  (1) 
CN(C)[C@@H](c1ccccc1)[C@@H](NC(=S)NP1(=O)N(Cc2ccccc2)[C@H]2CCCC[C@@H]2N1Cc1ccccc1)c1ccccc1

>  <axial_configuration>  (1) 
none

>  <inchikey>  (1) 
DQUHCQRAEODOBF-ZYADHFCISA-N

>  <build_source>  (1) 
smiles

>  <rdkit_version>  (1) 
2025.09.6

>  <random_seed>  (1) 
42

>  <generated_at>  (1) 
2026-05-19T12:40:11

$$$$
