catalyst179
     RDKit          3D

  0  0  0  0  0  0  0  0  0  0999 V3000
M  V30 BEGIN CTAB
M  V30 COUNTS 67 72 0 0 0
M  V30 BEGIN ATOM
M  V30 1 C -3.991019 -4.756809 -0.406917 0
M  V30 2 C -3.093487 -3.779094 -0.587082 0
M  V30 3 C -1.947799 -3.500340 0.357396 0 CFG=1
M  V30 4 C -0.569880 -3.535286 -0.359362 0
M  V30 5 N 0.155875 -2.241899 -0.235834 0
M  V30 6 C 0.404206 -1.985189 1.202041 0
M  V30 7 C -0.890538 -2.001814 2.027959 0
M  V30 8 C -2.091653 -2.134948 1.076020 0 CFG=1
M  V30 9 C -1.974567 -0.967624 0.076876 0
M  V30 10 C -0.727899 -1.172207 -0.816116 0 CFG=1
M  V30 11 C 0.052291 0.160919 -1.137132 0 CFG=1
M  V30 12 N 1.262194 -0.216110 -1.929916 0
M  V30 13 S 2.546605 0.882044 -1.975185 0
M  V30 14 O 3.539300 0.381918 -2.900525 0
M  V30 15 O 1.990899 2.208749 -2.145780 0
M  V30 16 C 3.240906 0.811736 -0.348051 0
M  V30 17 C 3.366502 2.005027 0.381578 0
M  V30 18 C 3.923226 1.977355 1.652733 0
M  V30 19 C 4.351469 0.764710 2.183768 0
M  V30 20 C 4.218152 -0.427258 1.449045 0
M  V30 21 C 4.641900 -1.649611 1.988484 0
M  V30 22 C 4.494677 -2.821637 1.259270 0
M  V30 23 C 3.917694 -2.733244 0.010884 0
M  V30 24 N 3.491677 -1.573755 -0.535326 0
M  V30 25 C 3.649805 -0.422015 0.155078 0
M  V30 26 C -0.844928 1.141364 -1.885778 0
M  V30 27 C -1.140521 0.875852 -3.231902 0
M  V30 28 C -1.975709 1.732187 -3.916816 0
M  V30 29 N -2.545019 2.819038 -3.364442 0
M  V30 30 C -2.254081 3.102752 -2.086596 0
M  V30 31 C -2.829128 4.240849 -1.540621 0
M  V30 32 C -2.597742 4.635499 -0.219653 0
M  V30 33 C -1.765323 3.874321 0.585728 0
M  V30 34 O -1.445387 4.131779 1.889675 0
M  V30 35 C -1.984165 5.319390 2.458579 0
M  V30 36 C -1.178188 2.722385 0.054338 0
M  V30 37 C -1.405761 2.304601 -1.283185 0
M  V30 38 H -3.952983 -5.420776 0.451081 0
M  V30 39 H -4.793150 -4.911841 -1.122675 0
M  V30 40 H -3.185874 -3.148345 -1.469469 0
M  V30 41 H -1.936225 -4.283703 1.128914 0
M  V30 42 H -0.669008 -3.797566 -1.420687 0
M  V30 43 H 0.048715 -4.332431 0.074193 0
M  V30 44 H 1.098882 -2.738049 1.594329 0
M  V30 45 H 0.914320 -1.025253 1.334885 0
M  V30 46 H -0.875780 -2.836394 2.739072 0
M  V30 47 H -0.970133 -1.079067 2.615052 0
M  V30 48 H -3.031156 -2.074291 1.636490 0
M  V30 49 H -1.913358 -0.030631 0.640679 0
M  V30 50 H -2.873332 -0.904827 -0.547364 0
M  V30 51 H -1.076386 -1.556850 -1.786429 0
M  V30 52 H 0.403085 0.579696 -0.191962 0
M  V30 53 H 1.623641 -1.132916 -1.616970 0
M  V30 54 H 3.041237 2.954059 -0.041501 0
M  V30 55 H 4.030566 2.896476 2.224039 0
M  V30 56 H 4.792567 0.753270 3.178839 0
M  V30 57 H 5.091528 -1.694570 2.977674 0
M  V30 58 H 4.820945 -3.776507 1.655115 0
M  V30 59 H 3.771638 -3.615426 -0.606444 0
M  V30 60 H -0.710961 0.020036 -3.744709 0
M  V30 61 H -2.217319 1.561304 -4.961741 0
M  V30 62 H -3.479528 4.846433 -2.168694 0
M  V30 63 H -3.081983 5.538594 0.134858 0
M  V30 64 H -1.636934 6.208100 1.921170 0
M  V30 65 H -1.621675 5.390385 3.488616 0
M  V30 66 H -3.077878 5.278855 2.492476 0
M  V30 67 H -0.528041 2.158605 0.715663 0
M  V30 END ATOM
M  V30 BEGIN BOND
M  V30 1 2 1 2
M  V30 2 1 2 3
M  V30 3 1 3 4
M  V30 4 1 4 5
M  V30 5 1 5 6
M  V30 6 1 6 7
M  V30 7 1 7 8
M  V30 8 1 8 9
M  V30 9 1 9 10
M  V30 10 1 10 11
M  V30 11 1 11 12
M  V30 12 1 12 13
M  V30 13 2 13 14
M  V30 14 2 13 15
M  V30 15 1 13 16
M  V30 16 2 16 17
M  V30 17 1 17 18
M  V30 18 2 18 19
M  V30 19 1 19 20
M  V30 20 2 20 21
M  V30 21 1 21 22
M  V30 22 2 22 23
M  V30 23 1 23 24
M  V30 24 2 24 25
M  V30 25 1 11 26
M  V30 26 2 26 27
M  V30 27 1 27 28
M  V30 28 2 28 29
M  V30 29 1 29 30
M  V30 30 2 30 31
M  V30 31 1 31 32
M  V30 32 2 32 33
M  V30 33 1 33 34
M  V30 34 1 34 35
M  V30 35 1 33 36
M  V30 36 2 36 37
M  V30 37 1 8 3
M  V30 38 1 25 16
M  V30 39 1 37 26
M  V30 40 1 10 5
M  V30 41 1 25 20
M  V30 42 1 37 30
M  V30 43 1 1 38
M  V30 44 1 1 39
M  V30 45 1 2 40
M  V30 46 1 3 41 CFG=1
M  V30 47 1 4 42
M  V30 48 1 4 43
M  V30 49 1 6 44
M  V30 50 1 6 45
M  V30 51 1 7 46
M  V30 52 1 7 47
M  V30 53 1 8 48 CFG=1
M  V30 54 1 9 49
M  V30 55 1 9 50
M  V30 56 1 10 51 CFG=3
M  V30 57 1 11 52 CFG=1
M  V30 58 1 12 53
M  V30 59 1 17 54
M  V30 60 1 18 55
M  V30 61 1 19 56
M  V30 62 1 21 57
M  V30 63 1 22 58
M  V30 64 1 23 59
M  V30 65 1 27 60
M  V30 66 1 28 61
M  V30 67 1 31 62
M  V30 68 1 32 63
M  V30 69 1 35 64
M  V30 70 1 35 65
M  V30 71 1 35 66
M  V30 72 1 36 67
M  V30 END BOND
M  V30 END CTAB
M  END
>  <catalyst_id>  (1) 
LODNMXYMCYRCAS_VATHDALSSA_NONE

>  <source_smiles>  (1) 
C=C[C@H]1CN2CC[C@H]1C[C@H]2[C@@H](NS(=O)(=O)c1cccc2cccnc12)c1ccnc2ccc(OC)cc12

>  <axial_configuration>  (1) 
none

>  <inchikey>  (1) 
LODNMXYMCYRCAS-VATHDALSSA-N

>  <build_source>  (1) 
smiles

>  <rdkit_version>  (1) 
2025.09.6

>  <random_seed>  (1) 
42

>  <generated_at>  (1) 
2026-05-19T12:33:38

$$$$
