catalyst10
     RDKit          3D

  0  0  0  0  0  0  0  0  0  0999 V3000
M  V30 BEGIN CTAB
M  V30 COUNTS 44 44 0 0 0
M  V30 BEGIN ATOM
M  V30 1 C -3.773715 1.688080 -0.124739 0
M  V30 2 C -2.432614 1.312349 -0.782242 0
M  V30 3 C -2.676853 0.637988 -2.147552 0
M  V30 4 C -1.555442 2.568098 -0.963971 0
M  V30 5 Si -1.408817 -0.033338 0.445037 0 VAL=4
M  V30 6 C -1.169996 0.812687 2.096395 0
M  V30 7 C -2.506724 -1.540348 0.637493 0
M  V30 8 O 0.037454 -0.385668 -0.330456 0
M  V30 9 C 0.948180 -1.343827 0.210259 0 CFG=1
M  V30 10 C 0.644764 -2.774615 -0.267125 0
M  V30 11 N 1.945950 -3.393331 -0.560583 0
M  V30 12 C 2.687300 -2.296537 -1.193417 0
M  V30 13 C 2.348008 -1.040147 -0.372213 0 CFG=2
M  V30 14 N 3.377748 -0.850394 0.690054 0
M  V30 15 S 3.349230 0.579169 1.618851 0
M  V30 16 O 4.627198 0.549016 2.309206 0
M  V30 17 O 2.122246 0.549018 2.390411 0
M  V30 18 C 3.325576 1.995136 0.384869 0
M  V30 19 F 2.103590 2.148360 -0.195713 0
M  V30 20 F 3.654863 3.185621 0.954226 0
M  V30 21 F 4.213297 1.772092 -0.627984 0
M  V30 22 H -3.626222 2.164067 0.850710 0
M  V30 23 H -4.410452 0.809476 0.025099 0
M  V30 24 H -4.328510 2.393190 -0.754224 0
M  V30 25 H -3.298059 -0.259044 -2.048508 0
M  V30 26 H -1.735550 0.340685 -2.623669 0
M  V30 27 H -3.192498 1.322233 -2.830922 0
M  V30 28 H -2.048640 3.293414 -1.621024 0
M  V30 29 H -1.362756 3.067107 -0.007814 0
M  V30 30 H -0.586184 2.320568 -1.411703 0
M  V30 31 H -0.554966 1.710876 1.990920 0
M  V30 32 H -2.130816 1.105579 2.529214 0
M  V30 33 H -0.676093 0.141579 2.805108 0
M  V30 34 H -2.662637 -2.035394 -0.325223 0
M  V30 35 H -2.052391 -2.262357 1.322274 0
M  V30 36 H -3.483722 -1.262978 1.043298 0
M  V30 37 H 0.960421 -1.318688 1.305917 0
M  V30 38 H 0.114731 -3.348248 0.500041 0
M  V30 39 H 0.017765 -2.774902 -1.166954 0
M  V30 40 H 2.401328 -3.610543 0.330115 0
M  V30 41 H 3.759235 -2.515830 -1.229743 0
M  V30 42 H 2.337278 -2.178656 -2.226444 0
M  V30 43 H 2.359508 -0.172927 -1.040073 0
M  V30 44 H 4.337986 -1.068617 0.412801 0
M  V30 END ATOM
M  V30 BEGIN BOND
M  V30 1 1 1 2
M  V30 2 1 2 3
M  V30 3 1 2 4
M  V30 4 1 2 5
M  V30 5 1 5 6
M  V30 6 1 5 7
M  V30 7 1 5 8
M  V30 8 1 8 9
M  V30 9 1 9 10
M  V30 10 1 10 11
M  V30 11 1 11 12
M  V30 12 1 12 13
M  V30 13 1 13 14
M  V30 14 1 14 15
M  V30 15 2 15 16
M  V30 16 2 15 17
M  V30 17 1 15 18
M  V30 18 1 18 19
M  V30 19 1 18 20
M  V30 20 1 18 21
M  V30 21 1 13 9
M  V30 22 1 1 22
M  V30 23 1 1 23
M  V30 24 1 1 24
M  V30 25 1 3 25
M  V30 26 1 3 26
M  V30 27 1 3 27
M  V30 28 1 4 28
M  V30 29 1 4 29
M  V30 30 1 4 30
M  V30 31 1 6 31
M  V30 32 1 6 32
M  V30 33 1 6 33
M  V30 34 1 7 34
M  V30 35 1 7 35
M  V30 36 1 7 36
M  V30 37 1 9 37 CFG=1
M  V30 38 1 10 38
M  V30 39 1 10 39
M  V30 40 1 11 40
M  V30 41 1 12 41
M  V30 42 1 12 42
M  V30 43 1 13 43 CFG=3
M  V30 44 1 14 44
M  V30 END BOND
M  V30 END CTAB
M  END
>  <catalyst_id>  (1) 
AWRTUKYTNSDGFX_IUCAKERBSA_NONE

>  <source_smiles>  (1) 
CC(C)(C)[Si](C)(C)O[C@H]1CNC[C@@H]1NS(=O)(=O)C(F)(F)F

>  <axial_configuration>  (1) 
none

>  <inchikey>  (1) 
AWRTUKYTNSDGFX-IUCAKERBSA-N

>  <build_source>  (1) 
smiles

>  <rdkit_version>  (1) 
2025.09.6

>  <random_seed>  (1) 
42

>  <generated_at>  (1) 
2026-05-19T12:31:51

$$$$
