catalyst55
     RDKit          3D

  0  0  0  0  0  0  0  0  0  0999 V3000
M  V30 BEGIN CTAB
M  V30 COUNTS 126 137 0 0 0
M  V30 BEGIN ATOM
M  V30 1 C 6.795925 2.676573 -1.541074 0
M  V30 2 C 5.840073 3.400227 -0.953174 0
M  V30 3 C 5.316037 3.282302 0.463525 0 CFG=1
M  V30 4 C 3.782718 3.092434 0.470668 0
M  V30 5 N 3.364213 2.053547 1.519702 0 CFG=2 CHG=1
M  V30 6 C 1.807558 2.101456 1.680592 0
M  V30 7 C 0.966788 1.339330 0.684491 0
M  V30 8 C 0.836266 1.816364 -0.634906 0
M  V30 9 C 0.160190 1.091815 -1.615827 0
M  V30 10 C 0.072863 1.588247 -2.929057 0
M  V30 11 C -0.567973 0.862897 -3.931012 0
M  V30 12 C -1.125174 -0.371278 -3.629324 0
M  V30 13 C -1.045882 -0.864499 -2.326790 0
M  V30 14 C -0.408746 -0.150056 -1.282544 0
M  V30 15 C -0.309738 -0.628737 0.080363 0
M  V30 16 C -0.943556 -1.955854 0.433313 0
M  V30 17 C -0.155274 -3.160181 0.371725 0
M  V30 18 O 0.992094 -3.246973 -0.199205 0 CHG=-1
M  V30 19 C -0.744433 -4.291888 0.987656 0
M  V30 20 C 0.072848 -5.553169 1.142705 0
M  V30 21 N 0.014180 -6.611143 -0.009694 0 CFG=1 CHG=1
M  V30 22 C -0.694180 -6.046428 -1.256461 0
M  V30 23 C -0.811751 -7.143384 -2.315682 0
M  V30 24 C -0.167050 -8.446646 -1.831817 0 CFG=1
M  V30 25 C 1.303854 -8.140721 -1.532822 0
M  V30 26 C 1.460884 -7.119436 -0.380431 0 CFG=1
M  V30 27 C 2.550112 -6.017161 -0.693657 0 CFG=2
M  V30 28 O 2.201507 -5.222336 -1.818974 0
M  V30 29 C 3.948317 -6.643824 -0.798844 0
M  V30 30 C 4.603607 -6.862761 0.428525 0
M  V30 31 C 5.845416 -7.458538 0.438360 0
M  V30 32 N 6.476247 -7.876118 -0.671587 0
M  V30 33 C 5.887552 -7.653138 -1.855026 0
M  V30 34 C 6.583827 -8.063913 -2.984007 0
M  V30 35 C 6.082080 -7.876101 -4.272819 0
M  V30 36 C 4.855775 -7.253737 -4.440188 0
M  V30 37 C 4.139436 -6.830887 -3.318410 0
M  V30 38 C 4.620418 -7.028298 -1.996879 0
M  V30 39 C -0.890889 -8.917953 -0.556680 0 CFG=1
M  V30 40 C -0.410696 -10.299972 -0.156687 0
M  V30 41 C -0.003700 -10.746501 1.041566 0
M  V30 42 C -0.811543 -7.799456 0.505562 0
M  V30 43 C -2.065787 -4.285137 1.482978 0
M  V30 44 C -2.860771 -3.144700 1.419828 0
M  V30 45 C -4.188413 -3.178937 1.883196 0
M  V30 46 C -4.988157 -2.036759 1.858291 0
M  V30 47 C -4.461706 -0.845986 1.382364 0
M  V30 48 C -3.141169 -0.807708 0.928308 0
M  V30 49 C -2.305625 -1.953053 0.916861 0
M  V30 50 C 0.315040 0.159346 1.120092 0
M  V30 51 O 0.321774 -0.156648 2.365530 0 CHG=-1
M  V30 52 C 3.953333 2.434443 2.880281 0
M  V30 53 C 5.475524 2.468325 2.808056 0
M  V30 54 C 5.952475 2.217220 1.374026 0 CFG=1
M  V30 55 C 5.486805 0.803060 1.010804 0
M  V30 56 C 3.936655 0.646648 1.031375 0 CFG=1
M  V30 57 C 3.431015 -0.675207 1.746060 0 CFG=2
M  V30 58 O 3.023510 -0.407001 3.091241 0
M  V30 59 C 4.444182 -1.829543 1.728506 0
M  V30 60 C 5.039699 -2.247935 2.927556 0
M  V30 61 C 6.049124 -3.188510 2.883570 0
M  V30 62 N 6.511655 -3.736903 1.744203 0
M  V30 63 C 5.931222 -3.371879 0.586566 0
M  V30 64 C 6.425134 -3.927192 -0.589035 0
M  V30 65 C 5.878633 -3.631476 -1.840157 0
M  V30 66 C 4.795826 -2.772284 -1.922303 0
M  V30 67 C 4.291251 -2.186461 -0.757615 0
M  V30 68 C 4.862981 -2.444988 0.513930 0
M  V30 69 H 7.079789 2.876887 -2.571665 0
M  V30 70 H 7.330991 1.875933 -1.043815 0
M  V30 71 H 5.389784 4.192108 -1.552123 0
M  V30 72 H 5.525181 4.264255 0.916662 0
M  V30 73 H 3.286424 4.041222 0.715814 0
M  V30 74 H 3.423914 2.748202 -0.501039 0
M  V30 75 H 1.523337 3.163692 1.636944 0
M  V30 76 H 1.599364 1.824712 2.717808 0
M  V30 77 H 1.264196 2.775542 -0.898676 0
M  V30 78 H 0.516788 2.546429 -3.183806 0
M  V30 79 H -0.621517 1.255257 -4.943569 0
M  V30 80 H -1.616450 -0.960085 -4.396469 0
M  V30 81 H -1.476496 -1.840720 -2.118304 0
M  V30 82 H 1.116100 -5.335475 1.381125 0
M  V30 83 H -0.266585 -6.065218 2.055338 0
M  V30 84 H -0.156552 -5.186511 -1.649925 0
M  V30 85 H -1.704125 -5.734864 -0.956622 0
M  V30 86 H -0.340172 -6.805947 -3.249288 0
M  V30 87 H -1.872001 -7.311034 -2.556187 0
M  V30 88 H -0.237725 -9.201088 -2.625192 0
M  V30 89 H 1.850582 -9.057500 -1.280733 0
M  V30 90 H 1.754751 -7.771388 -2.457188 0
M  V30 91 H 1.787308 -7.664364 0.519307 0
M  V30 92 H 2.638512 -5.325374 0.146968 0
M  V30 93 H 1.823195 -4.385776 -1.418888 0
M  V30 94 H 4.168429 -6.539374 1.371314 0
M  V30 95 H 6.385023 -7.612905 1.368273 0
M  V30 96 H 7.553032 -8.540324 -2.855339 0
M  V30 97 H 6.655869 -8.207655 -5.136738 0
M  V30 98 H 4.452269 -7.083069 -5.436637 0
M  V30 99 H 3.198257 -6.322855 -3.501964 0
M  V30 100 H -1.953833 -9.051124 -0.802203 0
M  V30 101 H -0.420191 -11.031355 -0.968097 0
M  V30 102 H 0.036583 -10.145435 1.941292 0
M  V30 103 H 0.309608 -11.786072 1.155488 0
M  V30 104 H -0.352627 -8.119513 1.442437 0
M  V30 105 H -1.811743 -7.417417 0.729999 0
M  V30 106 H -2.468748 -5.188335 1.934621 0
M  V30 107 H -4.608574 -4.099020 2.277953 0
M  V30 108 H -6.011576 -2.072044 2.220947 0
M  V30 109 H -5.061118 0.062709 1.369675 0
M  V30 110 H -2.747662 0.145498 0.581881 0
M  V30 111 H 3.612214 1.737734 3.649228 0
M  V30 112 H 3.562087 3.427423 3.130712 0
M  V30 113 H 5.850606 3.430233 3.177905 0
M  V30 114 H 5.891402 1.710463 3.482365 0
M  V30 115 H 7.045074 2.273079 1.345958 0
M  V30 116 H 5.975676 0.127077 1.717076 0
M  V30 117 H 5.853477 0.510697 0.022416 0
M  V30 118 H 3.618228 0.576203 -0.016628 0
M  V30 119 H 2.563687 -1.061946 1.204694 0
M  V30 120 H 2.023809 -0.439490 3.023714 0
M  V30 121 H 4.741726 -1.831119 3.883921 0
M  V30 122 H 6.550700 -3.518369 3.786746 0
M  V30 123 H 7.249687 -4.635764 -0.526776 0
M  V30 124 H 6.266867 -4.121847 -2.727330 0
M  V30 125 H 4.313484 -2.582191 -2.876879 0
M  V30 126 H 3.397654 -1.572351 -0.851735 0
M  V30 END ATOM
M  V30 BEGIN BOND
M  V30 1 2 1 2
M  V30 2 1 2 3
M  V30 3 1 3 4
M  V30 4 1 4 5
M  V30 5 1 5 6 CFG=1
M  V30 6 1 6 7
M  V30 7 2 7 8
M  V30 8 1 8 9
M  V30 9 2 9 10
M  V30 10 1 10 11
M  V30 11 2 11 12
M  V30 12 1 12 13
M  V30 13 2 13 14
M  V30 14 1 14 15
M  V30 15 1 15 16
M  V30 16 2 16 17
M  V30 17 1 17 18
M  V30 18 1 17 19
M  V30 19 1 19 20
M  V30 20 1 21 20 CFG=1
M  V30 21 1 21 22
M  V30 22 1 22 23
M  V30 23 1 23 24
M  V30 24 1 24 25
M  V30 25 1 25 26
M  V30 26 1 26 27
M  V30 27 1 27 28
M  V30 28 1 27 29
M  V30 29 2 29 30
M  V30 30 1 30 31
M  V30 31 2 31 32
M  V30 32 1 32 33
M  V30 33 2 33 34
M  V30 34 1 34 35
M  V30 35 2 35 36
M  V30 36 1 36 37
M  V30 37 2 37 38
M  V30 38 1 24 39
M  V30 39 1 39 40
M  V30 40 2 40 41
M  V30 41 1 39 42
M  V30 42 2 19 43
M  V30 43 1 43 44
M  V30 44 2 44 45
M  V30 45 1 45 46
M  V30 46 2 46 47
M  V30 47 1 47 48
M  V30 48 2 48 49
M  V30 49 2 15 50
M  V30 50 1 50 51
M  V30 51 1 5 52
M  V30 52 1 52 53
M  V30 53 1 53 54
M  V30 54 1 54 55
M  V30 55 1 55 56
M  V30 56 1 56 57
M  V30 57 1 57 58
M  V30 58 1 57 59
M  V30 59 2 59 60
M  V30 60 1 60 61
M  V30 61 2 61 62
M  V30 62 1 62 63
M  V30 63 2 63 64
M  V30 64 1 64 65
M  V30 65 2 65 66
M  V30 66 1 66 67
M  V30 67 2 67 68
M  V30 68 1 54 3
M  V30 69 1 68 59
M  V30 70 1 56 5
M  V30 71 1 68 63
M  V30 72 1 50 7
M  V30 73 1 14 9
M  V30 74 1 49 16
M  V30 75 1 26 21
M  V30 76 1 38 29
M  V30 77 1 49 44
M  V30 78 1 42 21
M  V30 79 1 38 33
M  V30 80 1 1 69
M  V30 81 1 1 70
M  V30 82 1 2 71
M  V30 83 1 3 72 CFG=1
M  V30 84 1 4 73
M  V30 85 1 4 74
M  V30 86 1 6 75
M  V30 87 1 6 76
M  V30 88 1 8 77
M  V30 89 1 10 78
M  V30 90 1 11 79
M  V30 91 1 12 80
M  V30 92 1 13 81
M  V30 93 1 20 82
M  V30 94 1 20 83
M  V30 95 1 22 84
M  V30 96 1 22 85
M  V30 97 1 23 86
M  V30 98 1 23 87
M  V30 99 1 24 88 CFG=3
M  V30 100 1 25 89
M  V30 101 1 25 90
M  V30 102 1 26 91 CFG=1
M  V30 103 1 27 92 CFG=1
M  V30 104 1 28 93
M  V30 105 1 30 94
M  V30 106 1 31 95
M  V30 107 1 34 96
M  V30 108 1 35 97
M  V30 109 1 36 98
M  V30 110 1 37 99
M  V30 111 1 39 100 CFG=3
M  V30 112 1 40 101
M  V30 113 1 41 102
M  V30 114 1 41 103
M  V30 115 1 42 104
M  V30 116 1 42 105
M  V30 117 1 43 106
M  V30 118 1 45 107
M  V30 119 1 46 108
M  V30 120 1 47 109
M  V30 121 1 48 110
M  V30 122 1 52 111
M  V30 123 1 52 112
M  V30 124 1 53 113
M  V30 125 1 53 114
M  V30 126 1 54 115 CFG=1
M  V30 127 1 55 116
M  V30 128 1 55 117
M  V30 129 1 56 118 CFG=3
M  V30 130 1 57 119 CFG=3
M  V30 131 1 58 120
M  V30 132 1 60 121
M  V30 133 1 61 122
M  V30 134 1 64 123
M  V30 135 1 65 124
M  V30 136 1 66 125
M  V30 137 1 67 126
M  V30 END BOND
M  V30 END CTAB
M  END
>  <catalyst_id>  (1) 
FLNSVGAWHWKUNH_ZLZLVXQTSA_R

>  <source_smiles>  (1) 
C=C[C@H]1C[N+]2(Cc3cc4ccccc4c(-c4c([O-])c(C[N+]56CC[C@@H](C[C@H]5[C@H](O)c5ccnc7ccccc57)[C@@H](C=C)C6)cc5ccccc45)c3[O-])CC[C@H]1C[C@H]2[C@H](O)c1ccnc2ccccc12

>  <axial_configuration>  (1) 
R

>  <inchikey>  (1) 
FLNSVGAWHWKUNH-ZLZLVXQTSA-N

>  <build_source>  (1) 
smiles+axial_free

>  <final_biaryl_angle_deg>  (1) 
92.69

>  <rdkit_version>  (1) 
2025.09.6

>  <random_seed>  (1) 
42

>  <generated_at>  (1) 
2026-05-19T12:32:16

$$$$
