catalyst232
     RDKit          3D

  0  0  0  0  0  0  0  0  0  0999 V3000
M  V30 BEGIN CTAB
M  V30 COUNTS 150 157 0 0 0
M  V30 BEGIN ATOM
M  V30 1 C 8.671722 3.826953 -2.205770 0
M  V30 2 C 8.126756 3.455199 -0.832386 0
M  V30 3 C 7.176323 2.253962 -0.925938 0
M  V30 4 N 6.518196 1.798184 0.301752 0
M  V30 5 C 5.725994 2.802121 1.023377 0
M  V30 6 C 4.418823 3.133857 0.320292 0
M  V30 7 C 3.230941 2.446792 0.651711 0
M  V30 8 C 2.029841 2.719618 -0.004353 0
M  V30 9 C 2.033832 3.684432 -1.025214 0
M  V30 10 C 3.197539 4.387198 -1.373100 0
M  V30 11 C 3.166678 5.444103 -2.447926 0
M  V30 12 F 2.202105 5.225181 -3.384737 0
M  V30 13 F 4.338358 5.535414 -3.137482 0
M  V30 14 F 2.928948 6.686530 -1.946837 0
M  V30 15 C 4.380252 4.116653 -0.677547 0
M  V30 16 N 0.769528 2.148427 0.279346 0
M  V30 17 C 0.296920 1.253845 1.209622 0
M  V30 18 S 1.148253 0.231977 2.219400 0
M  V30 19 N -1.080268 1.143933 1.254293 0
M  V30 20 C -2.093944 2.064010 0.905640 0
M  V30 21 C -3.393134 1.570989 0.743072 0
M  V30 22 C -4.450697 2.413690 0.359432 0
M  V30 23 C -4.196321 3.783411 0.198759 0
M  V30 24 C -2.911829 4.306137 0.403611 0
M  V30 25 C -2.644204 5.784597 0.271631 0
M  V30 26 F -2.605396 6.415382 1.476490 0
M  V30 27 F -1.448401 6.045792 -0.328477 0
M  V30 28 F -3.580995 6.440830 -0.467377 0
M  V30 29 C -1.872147 3.437069 0.773693 0
M  V30 30 C -5.865713 1.887736 0.178854 0
M  V30 31 N -5.956838 0.577698 -0.483636 0
M  V30 32 C -5.505668 0.632565 -1.872654 0
M  V30 33 C -7.304502 -0.053631 -0.305835 0 CFG=1
M  V30 34 C -8.462817 0.756498 -0.912662 0
M  V30 35 C -8.769044 0.722984 -2.282582 0
M  V30 36 C -9.830735 1.470136 -2.798194 0
M  V30 37 C -10.604342 2.261902 -1.953853 0
M  V30 38 C -10.318089 2.308046 -0.592539 0
M  V30 39 C -9.256897 1.562254 -0.075859 0
M  V30 40 C -7.371547 -1.617324 -0.688308 0 CFG=2
M  V30 41 C -8.695983 -2.268910 -0.255458 0
M  V30 42 C -9.176248 -2.201467 1.062542 0
M  V30 43 C -10.385593 -2.805031 1.415911 0
M  V30 44 C -11.133896 -3.485795 0.459288 0
M  V30 45 C -10.674452 -3.565087 -0.852111 0
M  V30 46 C -9.466009 -2.962636 -1.206779 0
M  V30 47 N -6.160135 -2.409857 -0.312413 0
M  V30 48 C -6.152221 -3.745405 -0.909925 0
M  V30 49 C -5.879133 -2.451032 1.124483 0
M  V30 50 C -4.428041 -2.732800 1.487048 0
M  V30 51 C -3.362466 -2.394791 0.629313 0
M  V30 52 C -2.036599 -2.569753 1.016921 0
M  V30 53 C -1.779096 -3.087308 2.296872 0
M  V30 54 C -2.817411 -3.443457 3.171100 0
M  V30 55 C -2.513327 -3.978151 4.547894 0
M  V30 56 F -1.335086 -4.657127 4.612541 0
M  V30 57 F -3.464264 -4.838688 5.007865 0
M  V30 58 F -2.427165 -2.986688 5.476802 0
M  V30 59 C -4.140065 -3.250155 2.758098 0
M  V30 60 N -0.895986 -2.261868 0.245439 0
M  V30 61 C -0.686016 -1.789998 -1.029153 0
M  V30 62 S -1.788195 -1.255269 -2.162324 0
M  V30 63 N 0.639833 -1.662657 -1.393323 0
M  V30 64 C 1.801310 -2.200953 -0.810038 0
M  V30 65 C 2.965703 -1.436360 -0.872411 0
M  V30 66 C 4.127096 -1.841973 -0.196785 0
M  V30 67 C 4.115128 -3.058244 0.502129 0
M  V30 68 C 2.979845 -3.880181 0.499012 0
M  V30 69 C 2.975023 -5.209956 1.208518 0
M  V30 70 F 2.925976 -6.259650 0.342589 0
M  V30 71 F 4.067303 -5.421657 1.993138 0
M  V30 72 F 1.894726 -5.352474 2.027836 0
M  V30 73 C 1.826175 -3.441937 -0.169864 0
M  V30 74 C 5.282716 -0.861407 -0.091319 0
M  V30 75 N 6.616845 -1.454024 0.063595 0
M  V30 76 C 7.028991 -2.282273 -1.090706 0
M  V30 77 C 7.007083 -1.605941 -2.470396 0
M  V30 78 C 7.516258 -2.550281 -3.550985 0
M  V30 79 C 7.690958 -0.503273 0.484219 0 CFG=2
M  V30 80 C 8.613100 -1.261728 1.466985 0
M  V30 81 C 9.906391 -0.499266 1.766493 0
M  V30 82 C 9.794382 1.006592 1.554960 0
M  V30 83 C 8.424911 1.527821 1.963296 0
M  V30 84 C 7.262977 0.865049 1.182335 0 CFG=1
M  V30 85 H 9.351037 4.681369 -2.124635 0
M  V30 86 H 9.226603 2.992729 -2.646905 0
M  V30 87 H 7.860924 4.101794 -2.888055 0
M  V30 88 H 7.618602 4.331239 -0.419021 0
M  V30 89 H 8.974165 3.233100 -0.180522 0
M  V30 90 H 6.394507 2.491373 -1.657755 0
M  V30 91 H 7.713864 1.428791 -1.400003 0
M  V30 92 H 6.293526 3.719317 1.217780 0
M  V30 93 H 5.457688 2.432822 2.022558 0
M  V30 94 H 3.290477 1.702760 1.436415 0
M  V30 95 H 1.110977 3.921929 -1.554905 0
M  V30 96 H 5.285087 4.667801 -0.929262 0
M  V30 97 H 0.042586 2.421379 -0.370795 0
M  V30 98 H -1.405257 0.272860 1.665603 0
M  V30 99 H -3.594678 0.509746 0.873875 0
M  V30 100 H -5.009994 4.454004 -0.078993 0
M  V30 101 H -0.899365 3.869529 0.999878 0
M  V30 102 H -6.285187 1.825061 1.191627 0
M  V30 103 H -6.459005 2.630284 -0.369844 0
M  V30 104 H -6.065474 1.360315 -2.468556 0
M  V30 105 H -5.574173 -0.343615 -2.361683 0
M  V30 106 H -4.449498 0.914459 -1.930522 0
M  V30 107 H -7.471158 -0.033285 0.779099 0
M  V30 108 H -8.183842 0.117322 -2.969580 0
M  V30 109 H -10.054102 1.432085 -3.861311 0
M  V30 110 H -11.431522 2.840276 -2.356500 0
M  V30 111 H -10.923677 2.921923 0.069037 0
M  V30 112 H -9.057027 1.610822 0.992361 0
M  V30 113 H -7.370735 -1.631039 -1.786468 0
M  V30 114 H -8.618210 -1.679255 1.834328 0
M  V30 115 H -10.744642 -2.742406 2.439957 0
M  V30 116 H -12.075114 -3.953358 0.735476 0
M  V30 117 H -11.257200 -4.094656 -1.601187 0
M  V30 118 H -9.127581 -3.037146 -2.238153 0
M  V30 119 H -6.910062 -4.406018 -0.475169 0
M  V30 120 H -6.319997 -3.688489 -1.991292 0
M  V30 121 H -5.178633 -4.230511 -0.782663 0
M  V30 122 H -6.520270 -3.196000 1.612988 0
M  V30 123 H -6.095103 -1.486741 1.596105 0
M  V30 124 H -3.620756 -1.971599 -0.333545 0
M  V30 125 H -0.750681 -3.232116 2.630176 0
M  V30 126 H -4.955628 -3.496898 3.438130 0
M  V30 127 H -0.035716 -2.317227 0.776578 0
M  V30 128 H 0.779610 -1.001060 -2.150343 0
M  V30 129 H 2.951215 -0.464514 -1.362869 0
M  V30 130 H 5.000899 -3.360090 1.062210 0
M  V30 131 H 0.951020 -4.090327 -0.189747 0
M  V30 132 H 5.258322 -0.174057 -0.943950 0
M  V30 133 H 5.020355 -0.293160 0.806154 0
M  V30 134 H 8.034261 -2.682689 -0.910338 0
M  V30 135 H 6.391997 -3.173880 -1.133747 0
M  V30 136 H 5.989341 -1.301204 -2.735903 0
M  V30 137 H 7.630016 -0.706524 -2.473397 0
M  V30 138 H 7.488205 -2.057625 -4.527988 0
M  V30 139 H 6.897864 -3.451798 -3.607303 0
M  V30 140 H 8.549554 -2.852578 -3.352940 0
M  V30 141 H 8.300443 -0.253423 -0.390087 0
M  V30 142 H 8.884900 -2.255611 1.092964 0
M  V30 143 H 8.071940 -1.433722 2.407584 0
M  V30 144 H 10.715154 -0.881535 1.131738 0
M  V30 145 H 10.206481 -0.708896 2.800508 0
M  V30 146 H 10.577862 1.515396 2.128017 0
M  V30 147 H 9.981162 1.240190 0.500384 0
M  V30 148 H 8.401392 2.619428 1.885057 0
M  V30 149 H 8.281875 1.324457 3.033871 0
M  V30 150 H 6.557554 0.559389 1.969269 0
M  V30 END ATOM
M  V30 BEGIN BOND
M  V30 1 1 1 2
M  V30 2 1 2 3
M  V30 3 1 3 4
M  V30 4 1 4 5
M  V30 5 1 5 6
M  V30 6 1 6 7
M  V30 7 2 7 8
M  V30 8 1 8 9
M  V30 9 2 9 10
M  V30 10 1 10 11
M  V30 11 1 11 12
M  V30 12 1 11 13
M  V30 13 1 11 14
M  V30 14 1 10 15
M  V30 15 1 8 16
M  V30 16 1 16 17
M  V30 17 2 17 18
M  V30 18 1 17 19
M  V30 19 1 19 20
M  V30 20 1 20 21
M  V30 21 2 21 22
M  V30 22 1 22 23
M  V30 23 2 23 24
M  V30 24 1 24 25
M  V30 25 1 25 26
M  V30 26 1 25 27
M  V30 27 1 25 28
M  V30 28 1 24 29
M  V30 29 1 22 30
M  V30 30 1 30 31
M  V30 31 1 31 32
M  V30 32 1 31 33
M  V30 33 1 33 34
M  V30 34 2 34 35
M  V30 35 1 35 36
M  V30 36 2 36 37
M  V30 37 1 37 38
M  V30 38 2 38 39
M  V30 39 1 33 40
M  V30 40 1 40 41
M  V30 41 2 41 42
M  V30 42 1 42 43
M  V30 43 2 43 44
M  V30 44 1 44 45
M  V30 45 2 45 46
M  V30 46 1 40 47
M  V30 47 1 47 48
M  V30 48 1 47 49
M  V30 49 1 49 50
M  V30 50 1 50 51
M  V30 51 2 51 52
M  V30 52 1 52 53
M  V30 53 2 53 54
M  V30 54 1 54 55
M  V30 55 1 55 56
M  V30 56 1 55 57
M  V30 57 1 55 58
M  V30 58 1 54 59
M  V30 59 1 52 60
M  V30 60 1 60 61
M  V30 61 2 61 62
M  V30 62 1 61 63
M  V30 63 1 63 64
M  V30 64 1 64 65
M  V30 65 2 65 66
M  V30 66 1 66 67
M  V30 67 2 67 68
M  V30 68 1 68 69
M  V30 69 1 69 70
M  V30 70 1 69 71
M  V30 71 1 69 72
M  V30 72 1 68 73
M  V30 73 1 66 74
M  V30 74 1 74 75
M  V30 75 1 75 76
M  V30 76 1 76 77
M  V30 77 1 77 78
M  V30 78 1 75 79
M  V30 79 1 79 80
M  V30 80 1 80 81
M  V30 81 1 81 82
M  V30 82 1 82 83
M  V30 83 1 83 84
M  V30 84 1 84 4
M  V30 85 2 15 6
M  V30 86 2 29 20
M  V30 87 1 39 34
M  V30 88 1 46 41
M  V30 89 2 59 50
M  V30 90 2 73 64
M  V30 91 1 84 79
M  V30 92 1 1 85
M  V30 93 1 1 86
M  V30 94 1 1 87
M  V30 95 1 2 88
M  V30 96 1 2 89
M  V30 97 1 3 90
M  V30 98 1 3 91
M  V30 99 1 5 92
M  V30 100 1 5 93
M  V30 101 1 7 94
M  V30 102 1 9 95
M  V30 103 1 15 96
M  V30 104 1 16 97
M  V30 105 1 19 98
M  V30 106 1 21 99
M  V30 107 1 23 100
M  V30 108 1 29 101
M  V30 109 1 30 102
M  V30 110 1 30 103
M  V30 111 1 32 104
M  V30 112 1 32 105
M  V30 113 1 32 106
M  V30 114 1 33 107 CFG=1
M  V30 115 1 35 108
M  V30 116 1 36 109
M  V30 117 1 37 110
M  V30 118 1 38 111
M  V30 119 1 39 112
M  V30 120 1 40 113 CFG=3
M  V30 121 1 42 114
M  V30 122 1 43 115
M  V30 123 1 44 116
M  V30 124 1 45 117
M  V30 125 1 46 118
M  V30 126 1 48 119
M  V30 127 1 48 120
M  V30 128 1 48 121
M  V30 129 1 49 122
M  V30 130 1 49 123
M  V30 131 1 51 124
M  V30 132 1 53 125
M  V30 133 1 59 126
M  V30 134 1 60 127
M  V30 135 1 63 128
M  V30 136 1 65 129
M  V30 137 1 67 130
M  V30 138 1 73 131
M  V30 139 1 74 132
M  V30 140 1 74 133
M  V30 141 1 76 134
M  V30 142 1 76 135
M  V30 143 1 77 136
M  V30 144 1 77 137
M  V30 145 1 78 138
M  V30 146 1 78 139
M  V30 147 1 78 140
M  V30 148 1 79 141 CFG=3
M  V30 149 1 80 142
M  V30 150 1 80 143
M  V30 151 1 81 144
M  V30 152 1 81 145
M  V30 153 1 82 146
M  V30 154 1 82 147
M  V30 155 1 83 148
M  V30 156 1 83 149
M  V30 157 1 84 150 CFG=1
M  V30 END BOND
M  V30 END CTAB
M  END
>  <catalyst_id>  (1) 
ODBOKUVGGDUAGJ_GRGRLRQMSA_NONE

>  <source_smiles>  (1) 
CCCN1Cc2cc(cc(C(F)(F)F)c2)NC(=S)Nc2cc(cc(C(F)(F)F)c2)CN(C)[C@@H](c2ccccc2)[C@H](c2ccccc2)N(C)Cc2cc(cc(C(F)(F)F)c2)NC(=S)Nc2cc(cc(C(F)(F)F)c2)CN(CCC)[C@@H]2CCCC[C@H]21

>  <axial_configuration>  (1) 
none

>  <inchikey>  (1) 
ODBOKUVGGDUAGJ-GRGRLRQMSA-N

>  <build_source>  (1) 
smiles

>  <rdkit_version>  (1) 
2025.09.6

>  <random_seed>  (1) 
42

>  <generated_at>  (1) 
2026-05-19T12:38:11

$$$$
