catalyst272
     RDKit          3D

  0  0  0  0  0  0  0  0  0  0999 V3000
M  V30 BEGIN CTAB
M  V30 COUNTS 35 36 0 0 0
M  V30 BEGIN ATOM
M  V30 1 N -1.262860 0.611589 -1.985491 0
M  V30 2 C -1.547683 -0.047625 -0.702865 0 CFG=2
M  V30 3 C -3.007986 0.258264 -0.333619 0
M  V30 4 C -3.407871 -0.400788 0.982871 0
M  V30 5 C -2.473712 0.002827 2.115975 0
M  V30 6 C -1.014907 -0.293952 1.775977 0
M  V30 7 C -0.580902 0.379315 0.453899 0 CFG=1
M  V30 8 N 0.869213 0.136092 0.277113 0
M  V30 9 C 1.223095 -1.158656 -0.310977 0
M  V30 10 C 2.727357 -1.417396 -0.199751 0
M  V30 11 C 3.532764 -0.284109 -0.824043 0
M  V30 12 C 3.102299 1.055739 -0.239418 0
M  V30 13 C 1.587867 1.251862 -0.343339 0
M  V30 14 H -1.239291 1.620798 -1.844289 0
M  V30 15 H -0.323267 0.354175 -2.281061 0
M  V30 16 H -1.465478 -1.130147 -0.861829 0
M  V30 17 H -3.158273 1.343092 -0.251979 0
M  V30 18 H -3.679545 -0.095679 -1.126057 0
M  V30 19 H -3.393027 -1.491347 0.865709 0
M  V30 20 H -4.436608 -0.121124 1.236674 0
M  V30 21 H -2.753356 -0.531296 3.031148 0
M  V30 22 H -2.590165 1.073583 2.323847 0
M  V30 23 H -0.383420 0.058829 2.601351 0
M  V30 24 H -0.882554 -1.381315 1.717083 0
M  V30 25 H -0.723053 1.458183 0.615631 0
M  V30 26 H 0.706703 -1.974071 0.207088 0
M  V30 27 H 0.932829 -1.209932 -1.366530 0
M  V30 28 H 2.977188 -2.363376 -0.693451 0
M  V30 29 H 3.004581 -1.525034 0.856687 0
M  V30 30 H 3.377795 -0.277922 -1.909884 0
M  V30 31 H 4.602696 -0.443534 -0.651190 0
M  V30 32 H 3.407321 1.109182 0.813546 0
M  V30 33 H 3.617206 1.869814 -0.762092 0
M  V30 34 H 1.340648 2.191389 0.165416 0
M  V30 35 H 1.314396 1.372571 -1.396407 0
M  V30 END ATOM
M  V30 BEGIN BOND
M  V30 1 1 1 2
M  V30 2 1 2 3
M  V30 3 1 3 4
M  V30 4 1 4 5
M  V30 5 1 5 6
M  V30 6 1 6 7
M  V30 7 1 7 8
M  V30 8 1 8 9
M  V30 9 1 9 10
M  V30 10 1 10 11
M  V30 11 1 11 12
M  V30 12 1 12 13
M  V30 13 1 7 2
M  V30 14 1 13 8
M  V30 15 1 1 14
M  V30 16 1 1 15
M  V30 17 1 2 16 CFG=3
M  V30 18 1 3 17
M  V30 19 1 3 18
M  V30 20 1 4 19
M  V30 21 1 4 20
M  V30 22 1 5 21
M  V30 23 1 5 22
M  V30 24 1 6 23
M  V30 25 1 6 24
M  V30 26 1 7 25 CFG=1
M  V30 27 1 9 26
M  V30 28 1 9 27
M  V30 29 1 10 28
M  V30 30 1 10 29
M  V30 31 1 11 30
M  V30 32 1 11 31
M  V30 33 1 12 32
M  V30 34 1 12 33
M  V30 35 1 13 34
M  V30 36 1 13 35
M  V30 END BOND
M  V30 END CTAB
M  END
>  <catalyst_id>  (1) 
QHFKXCGYRHKLNG_GHMZBOCLSA_NONE

>  <source_smiles>  (1) 
N[C@@H]1CCCC[C@H]1N1CCCCC1

>  <axial_configuration>  (1) 
none

>  <inchikey>  (1) 
QHFKXCGYRHKLNG-GHMZBOCLSA-N

>  <build_source>  (1) 
smiles

>  <rdkit_version>  (1) 
2025.09.6

>  <random_seed>  (1) 
42

>  <generated_at>  (1) 
2026-05-19T12:37:16

$$$$
