catalyst284
     RDKit          3D

  0  0  0  0  0  0  0  0  0  0999 V3000
M  V30 BEGIN CTAB
M  V30 COUNTS 52 54 0 0 0
M  V30 BEGIN ATOM
M  V30 1 C -4.400849 -0.804547 -0.100084 0
M  V30 2 N -2.941199 -0.719396 -0.147196 0
M  V30 3 C -2.471880 -0.808478 -1.528631 0
M  V30 4 C -2.421185 0.453876 0.605206 0 CFG=2
M  V30 5 C -2.601534 1.807026 -0.118084 0
M  V30 6 C -2.110389 2.977983 0.731469 0
M  V30 7 C -0.659687 2.793241 1.159062 0
M  V30 8 C -0.464021 1.473003 1.893321 0
M  V30 9 C -0.921859 0.274438 1.046352 0 CFG=1
M  V30 10 N -0.742540 -0.943264 1.868208 0
M  V30 11 C -0.490725 -2.118511 1.314212 0
M  V30 12 C 0.244757 -2.691897 0.301671 0
M  V30 13 N 1.118812 -2.409115 -0.644361 0
M  V30 14 C 2.064756 -1.362916 -0.717911 0
M  V30 15 C 2.423103 -0.573915 0.380160 0
M  V30 16 C 3.328131 0.493947 0.254791 0
M  V30 17 C 3.679235 1.345390 1.451193 0
M  V30 18 F 2.900451 2.459376 1.532281 0
M  V30 19 F 4.965970 1.791295 1.421004 0
M  V30 20 F 3.537268 0.698058 2.639713 0
M  V30 21 C 3.866457 0.784511 -1.007466 0
M  V30 22 C 3.525058 0.013228 -2.126961 0
M  V30 23 C 4.079746 0.342464 -3.491798 0
M  V30 24 F 3.270319 1.189283 -4.184247 0
M  V30 25 F 4.237611 -0.756184 -4.280637 0
M  V30 26 F 5.299724 0.944516 -3.441382 0
M  V30 27 C 2.617251 -1.047237 -1.968195 0
M  V30 28 C -0.371417 -4.019832 0.544936 0
M  V30 29 O -0.340773 -5.125848 0.064803 0
M  V30 30 C -1.072309 -3.429670 1.704904 0
M  V30 31 O -1.797252 -3.887956 2.553080 0
M  V30 32 H -4.743671 -1.739093 -0.558628 0
M  V30 33 H -4.887514 0.027284 -0.619930 0
M  V30 34 H -4.756096 -0.821759 0.936137 0
M  V30 35 H -1.382412 -0.735727 -1.592988 0
M  V30 36 H -2.739669 -1.783103 -1.952626 0
M  V30 37 H -2.906988 -0.035249 -2.171191 0
M  V30 38 H -2.995569 0.506341 1.542414 0
M  V30 39 H -3.656093 1.973750 -0.364330 0
M  V30 40 H -2.045014 1.813081 -1.063206 0
M  V30 41 H -2.745939 3.076842 1.620048 0
M  V30 42 H -2.209580 3.909963 0.163448 0
M  V30 43 H -0.358646 3.623481 1.807783 0
M  V30 44 H -0.007755 2.823415 0.277406 0
M  V30 45 H 0.591556 1.358342 2.164685 0
M  V30 46 H -1.021136 1.498239 2.839378 0
M  V30 47 H -0.287870 0.231697 0.154010 0
M  V30 48 H -1.416974 -0.941559 2.638733 0
M  V30 49 H 1.321966 -3.127821 -1.342547 0
M  V30 50 H 2.008113 -0.793211 1.363069 0
M  V30 51 H 4.558985 1.620990 -1.118061 0
M  V30 52 H 2.329275 -1.628774 -2.844170 0
M  V30 END ATOM
M  V30 BEGIN BOND
M  V30 1 1 1 2
M  V30 2 1 2 3
M  V30 3 1 2 4
M  V30 4 1 4 5
M  V30 5 1 5 6
M  V30 6 1 6 7
M  V30 7 1 7 8
M  V30 8 1 8 9
M  V30 9 1 9 10
M  V30 10 1 10 11
M  V30 11 2 11 12
M  V30 12 1 12 13
M  V30 13 1 13 14
M  V30 14 2 14 15
M  V30 15 1 15 16
M  V30 16 1 16 17
M  V30 17 1 17 18
M  V30 18 1 17 19
M  V30 19 1 17 20
M  V30 20 2 16 21
M  V30 21 1 21 22
M  V30 22 1 22 23
M  V30 23 1 23 24
M  V30 24 1 23 25
M  V30 25 1 23 26
M  V30 26 2 22 27
M  V30 27 1 12 28
M  V30 28 2 28 29
M  V30 29 1 28 30
M  V30 30 2 30 31
M  V30 31 1 9 4
M  V30 32 1 30 11
M  V30 33 1 27 14
M  V30 34 1 1 32
M  V30 35 1 1 33
M  V30 36 1 1 34
M  V30 37 1 3 35
M  V30 38 1 3 36
M  V30 39 1 3 37
M  V30 40 1 4 38 CFG=1
M  V30 41 1 5 39
M  V30 42 1 5 40
M  V30 43 1 6 41
M  V30 44 1 6 42
M  V30 45 1 7 43
M  V30 46 1 7 44
M  V30 47 1 8 45
M  V30 48 1 8 46
M  V30 49 1 9 47 CFG=3
M  V30 50 1 10 48
M  V30 51 1 13 49
M  V30 52 1 15 50
M  V30 53 1 21 51
M  V30 54 1 27 52
M  V30 END BOND
M  V30 END CTAB
M  END
>  <catalyst_id>  (1) 
QQXCDABMANNFAA_ZIAGYGMSSA_NONE

>  <source_smiles>  (1) 
CN(C)[C@@H]1CCCC[C@H]1Nc1c(Nc2cc(C(F)(F)F)cc(C(F)(F)F)c2)c(=O)c1=O

>  <axial_configuration>  (1) 
none

>  <inchikey>  (1) 
QQXCDABMANNFAA-ZIAGYGMSSA-N

>  <build_source>  (1) 
smiles

>  <rdkit_version>  (1) 
2025.09.6

>  <random_seed>  (1) 
42

>  <generated_at>  (1) 
2026-05-19T12:34:38

$$$$
