catalyst280
     RDKit          3D

  0  0  0  0  0  0  0  0  0  0999 V3000
M  V30 BEGIN CTAB
M  V30 COUNTS 71 75 0 0 0
M  V30 BEGIN ATOM
M  V30 1 O 0.685937 -0.439970 -1.762754 0
M  V30 2 C 1.465801 0.247734 -1.116099 0
M  V30 3 N 2.543484 -0.200279 -0.386854 0
M  V30 4 C 2.868445 -1.533691 -0.074172 0
M  V30 5 C 2.015828 -2.614986 -0.312521 0
M  V30 6 C 2.390548 -3.922469 0.038615 0
M  V30 7 C 1.474472 -5.093796 -0.224566 0
M  V30 8 F 1.057995 -5.696202 0.924325 0
M  V30 9 F 0.346131 -4.780212 -0.917499 0
M  V30 10 F 2.090783 -6.072524 -0.947031 0
M  V30 11 C 3.637231 -4.133200 0.649599 0
M  V30 12 C 4.505849 -3.061356 0.901100 0
M  V30 13 C 5.832797 -3.287090 1.583470 0
M  V30 14 F 6.786162 -2.391976 1.201933 0
M  V30 15 F 5.741050 -3.181743 2.937104 0
M  V30 16 F 6.358371 -4.518644 1.336533 0
M  V30 17 C 4.104105 -1.764417 0.541565 0
M  V30 18 N 1.341276 1.619676 -1.008321 0
M  V30 19 C 0.149149 2.277496 -1.568208 0 CFG=2
M  V30 20 C 0.460124 3.740936 -1.859979 0
M  V30 21 C 0.901313 4.616462 -0.853149 0
M  V30 22 C 1.166265 5.956619 -1.141353 0
M  V30 23 C 0.993385 6.439628 -2.436429 0
M  V30 24 C 0.554710 5.584411 -3.444632 0
M  V30 25 C 0.289077 4.243994 -3.159235 0
M  V30 26 C -1.141909 2.134007 -0.643769 0 CFG=2
M  V30 27 N -0.978892 1.074939 0.375008 0
M  V30 28 C -2.097270 0.930057 1.298122 0
M  V30 29 C -1.730855 -0.063892 2.386191 0
M  V30 30 C -1.294249 0.448374 3.622423 0
M  V30 31 C -0.903974 -0.402374 4.650256 0
M  V30 32 C -0.930829 -1.779805 4.455444 0
M  V30 33 C -1.347542 -2.327246 3.233496 0
M  V30 34 C -1.350201 -3.720694 3.056023 0
M  V30 35 C -1.752846 -4.290500 1.850389 0
M  V30 36 C -2.161402 -3.473423 0.806259 0
M  V30 37 C -2.167617 -2.086209 0.968368 0
M  V30 38 C -1.759340 -1.474113 2.177186 0
M  V30 39 C -2.391752 1.956239 -1.500470 0
M  V30 40 C -3.360455 2.971488 -1.543258 0
M  V30 41 C -4.509703 2.825832 -2.322317 0
M  V30 42 C -4.705275 1.666262 -3.069192 0
M  V30 43 C -3.751487 0.651698 -3.040512 0
M  V30 44 C -2.601519 0.794739 -2.262837 0
M  V30 45 H 3.223311 0.510587 -0.159967 0
M  V30 46 H 1.037300 -2.463826 -0.763032 0
M  V30 47 H 3.931470 -5.145868 0.931145 0
M  V30 48 H 4.774219 -0.930674 0.747443 0
M  V30 49 H 1.582770 1.955116 -0.088856 0
M  V30 50 H -0.035033 1.774788 -2.526662 0
M  V30 51 H 1.036486 4.263725 0.166477 0
M  V30 52 H 1.507102 6.625003 -0.354828 0
M  V30 53 H 1.200261 7.482753 -2.660800 0
M  V30 54 H 0.418735 5.960162 -4.455587 0
M  V30 55 H -0.055590 3.593078 -3.960934 0
M  V30 56 H -1.251544 3.066250 -0.074054 0
M  V30 57 H -0.820189 0.185763 -0.103285 0
M  V30 58 H -3.016776 0.602448 0.800776 0
M  V30 59 H -2.331572 1.897916 1.759309 0
M  V30 60 H -1.249636 1.523379 3.782892 0
M  V30 61 H -0.571446 0.006516 5.600378 0
M  V30 62 H -0.615976 -2.428770 5.269803 0
M  V30 63 H -1.031432 -4.378896 3.861509 0
M  V30 64 H -1.741135 -5.370202 1.726784 0
M  V30 65 H -2.471348 -3.911056 -0.139360 0
M  V30 66 H -2.498225 -1.487382 0.123738 0
M  V30 67 H -3.225901 3.887249 -0.971219 0
M  V30 68 H -5.252489 3.619029 -2.347388 0
M  V30 69 H -5.600006 1.553958 -3.675812 0
M  V30 70 H -3.900046 -0.252205 -3.625853 0
M  V30 71 H -1.866479 -0.008624 -2.260872 0
M  V30 END ATOM
M  V30 BEGIN BOND
M  V30 1 2 1 2
M  V30 2 1 2 3
M  V30 3 1 3 4
M  V30 4 2 4 5
M  V30 5 1 5 6
M  V30 6 1 6 7
M  V30 7 1 7 8
M  V30 8 1 7 9
M  V30 9 1 7 10
M  V30 10 2 6 11
M  V30 11 1 11 12
M  V30 12 1 12 13
M  V30 13 1 13 14
M  V30 14 1 13 15
M  V30 15 1 13 16
M  V30 16 2 12 17
M  V30 17 1 2 18
M  V30 18 1 18 19
M  V30 19 1 19 20
M  V30 20 2 20 21
M  V30 21 1 21 22
M  V30 22 2 22 23
M  V30 23 1 23 24
M  V30 24 2 24 25
M  V30 25 1 19 26
M  V30 26 1 26 27
M  V30 27 1 27 28
M  V30 28 1 28 29
M  V30 29 2 29 30
M  V30 30 1 30 31
M  V30 31 2 31 32
M  V30 32 1 32 33
M  V30 33 2 33 34
M  V30 34 1 34 35
M  V30 35 2 35 36
M  V30 36 1 36 37
M  V30 37 2 37 38
M  V30 38 1 26 39
M  V30 39 2 39 40
M  V30 40 1 40 41
M  V30 41 2 41 42
M  V30 42 1 42 43
M  V30 43 2 43 44
M  V30 44 1 17 4
M  V30 45 1 25 20
M  V30 46 1 38 29
M  V30 47 1 44 39
M  V30 48 1 38 33
M  V30 49 1 3 45
M  V30 50 1 5 46
M  V30 51 1 11 47
M  V30 52 1 17 48
M  V30 53 1 18 49
M  V30 54 1 19 50 CFG=3
M  V30 55 1 21 51
M  V30 56 1 22 52
M  V30 57 1 23 53
M  V30 58 1 24 54
M  V30 59 1 25 55
M  V30 60 1 26 56 CFG=1
M  V30 61 1 27 57
M  V30 62 1 28 58
M  V30 63 1 28 59
M  V30 64 1 30 60
M  V30 65 1 31 61
M  V30 66 1 32 62
M  V30 67 1 34 63
M  V30 68 1 35 64
M  V30 69 1 36 65
M  V30 70 1 37 66
M  V30 71 1 40 67
M  V30 72 1 41 68
M  V30 73 1 42 69
M  V30 74 1 43 70
M  V30 75 1 44 71
M  V30 END BOND
M  V30 END CTAB
M  END
>  <catalyst_id>  (1) 
QOFMPWDMEINIRE_FIRIVFDPSA_NONE

>  <source_smiles>  (1) 
O=C(Nc1cc(C(F)(F)F)cc(C(F)(F)F)c1)N[C@H](c1ccccc1)[C@H](NCc1cccc2ccccc12)c1ccccc1

>  <axial_configuration>  (1) 
none

>  <inchikey>  (1) 
QOFMPWDMEINIRE-FIRIVFDPSA-N

>  <build_source>  (1) 
smiles

>  <rdkit_version>  (1) 
2025.09.6

>  <random_seed>  (1) 
42

>  <generated_at>  (1) 
2026-05-19T12:30:12

$$$$
