catalyst124
     RDKit          3D

  0  0  0  0  0  0  0  0  0  0999 V3000
M  V30 BEGIN CTAB
M  V30 COUNTS 17 17 0 0 0
M  V30 BEGIN ATOM
M  V30 1 O 1.970548 -0.770114 1.316511 0
M  V30 2 C 1.753972 -0.149267 0.290087 0
M  V30 3 O 2.681353 0.701442 -0.195165 0
M  V30 4 C 0.526155 -0.211094 -0.580141 0 CFG=1
M  V30 5 C -0.497336 -1.248195 -0.111896 0
M  V30 6 C -1.658755 -0.424843 0.414318 0
M  V30 7 N -1.633058 0.756302 -0.444766 0
M  V30 8 C -0.216936 1.119807 -0.536049 0
M  V30 9 H 3.425547 0.630085 0.439625 0
M  V30 10 H 0.845927 -0.466817 -1.597776 0
M  V30 11 H -0.829463 -1.840402 -0.974495 0
M  V30 12 H -0.123859 -1.948293 0.641119 0
M  V30 13 H -1.496612 -0.143810 1.461586 0
M  V30 14 H -2.609496 -0.959769 0.338299 0
M  V30 15 H -2.176519 1.514882 -0.035021 0
M  V30 16 H 0.070521 1.727759 0.330690 0
M  V30 17 H -0.031989 1.712325 -1.437577 0
M  V30 END ATOM
M  V30 BEGIN BOND
M  V30 1 2 1 2
M  V30 2 1 2 3
M  V30 3 1 2 4
M  V30 4 1 4 5
M  V30 5 1 5 6
M  V30 6 1 6 7
M  V30 7 1 7 8
M  V30 8 1 8 4
M  V30 9 1 3 9
M  V30 10 1 4 10 CFG=3
M  V30 11 1 5 11
M  V30 12 1 5 12
M  V30 13 1 6 13
M  V30 14 1 6 14
M  V30 15 1 7 15
M  V30 16 1 8 16
M  V30 17 1 8 17
M  V30 END BOND
M  V30 END CTAB
M  END
>  <catalyst_id>  (1) 
JAEIBKXSIXOLOL_BYPYZUCNSA_NONE

>  <source_smiles>  (1) 
O=C(O)[C@H]1CCNC1

>  <axial_configuration>  (1) 
none

>  <inchikey>  (1) 
JAEIBKXSIXOLOL-BYPYZUCNSA-N

>  <build_source>  (1) 
smiles

>  <rdkit_version>  (1) 
2025.09.6

>  <random_seed>  (1) 
42

>  <generated_at>  (1) 
2026-05-19T12:37:16

$$$$
