catalyst116
     RDKit          3D

  0  0  0  0  0  0  0  0  0  0999 V3000
M  V30 BEGIN CTAB
M  V30 COUNTS 69 73 0 0 0
M  V30 BEGIN ATOM
M  V30 1 C -6.091053 -3.760590 -0.621527 0
M  V30 2 C -4.873113 -3.223781 -0.471904 0
M  V30 3 C -4.294236 -2.804025 0.858859 0 CFG=1
M  V30 4 C -2.938491 -3.500762 1.152899 0
M  V30 5 N -1.857918 -2.514455 1.437451 0
M  V30 6 C -2.268075 -1.731155 2.622101 0
M  V30 7 C -3.580011 -0.970016 2.380423 0
M  V30 8 C -4.089762 -1.271630 0.958165 0 CFG=1
M  V30 9 C -2.980389 -0.800327 -0.003035 0
M  V30 10 C -1.705998 -1.647243 0.220867 0 CFG=1
M  V30 11 C -0.342391 -0.855405 0.172506 0 CFG=2
M  V30 12 N -0.287429 0.343258 1.013492 0
M  V30 13 C 0.812730 0.960113 1.547434 0
M  V30 14 S 0.517277 2.018708 2.804752 0
M  V30 15 N 2.006307 0.654092 0.946962 0
M  V30 16 C 3.337848 0.867858 1.359966 0
M  V30 17 C 3.731984 1.014912 2.690072 0
M  V30 18 C 5.084032 1.198628 3.030401 0
M  V30 19 C 5.482538 1.388644 4.475083 0
M  V30 20 F 5.384627 2.685492 4.874003 0
M  V30 21 F 4.719594 0.665948 5.340652 0
M  V30 22 F 6.770929 1.018474 4.721529 0
M  V30 23 C 6.047075 1.229209 2.010184 0
M  V30 24 C 5.677685 1.044882 0.670399 0
M  V30 25 C 6.708756 1.076908 -0.431771 0
M  V30 26 F 6.441243 0.189540 -1.429858 0
M  V30 27 F 6.793379 2.297725 -1.025805 0
M  V30 28 F 7.965373 0.780616 0.001318 0
M  V30 29 C 4.319596 0.862962 0.360593 0
M  V30 30 C 0.114335 -0.630457 -1.274849 0
M  V30 31 C 0.897768 -1.658771 -1.831888 0
M  V30 32 C 1.347253 -1.540731 -3.128942 0
M  V30 33 N 1.075639 -0.483329 -3.910480 0
M  V30 34 C 0.321166 0.503954 -3.408050 0
M  V30 35 C 0.050967 1.576014 -4.245479 0
M  V30 36 C -0.720471 2.666327 -3.836986 0
M  V30 37 C -1.235781 2.692024 -2.551954 0
M  V30 38 O -2.003729 3.683214 -2.009254 0
M  V30 39 C -2.250282 4.824842 -2.821357 0
M  V30 40 C -0.971535 1.618868 -1.694899 0
M  V30 41 C -0.196538 0.498774 -2.089750 0
M  V30 42 H -6.753462 -3.925686 0.222719 0
M  V30 43 H -6.454943 -4.046274 -1.604180 0
M  V30 44 H -4.256338 -3.085238 -1.357942 0
M  V30 45 H -4.996034 -3.097874 1.652679 0
M  V30 46 H -3.050265 -4.168598 2.017584 0
M  V30 47 H -2.627296 -4.156409 0.329111 0
M  V30 48 H -1.473370 -1.044606 2.927877 0
M  V30 49 H -2.390006 -2.406186 3.479381 0
M  V30 50 H -3.416596 0.107292 2.503488 0
M  V30 51 H -4.330197 -1.269105 3.122086 0
M  V30 52 H -5.022606 -0.729857 0.765757 0
M  V30 53 H -2.807878 0.263695 0.175218 0
M  V30 54 H -3.309154 -0.892229 -1.044570 0
M  V30 55 H -1.648203 -2.352048 -0.622397 0
M  V30 56 H 0.410006 -1.519189 0.624611 0
M  V30 57 H -1.132480 0.577433 1.518901 0
M  V30 58 H 1.905769 0.430652 -0.034176 0
M  V30 59 H 3.006681 0.956883 3.497373 0
M  V30 60 H 7.096832 1.385777 2.264846 0
M  V30 61 H 4.033578 0.734126 -0.683590 0
M  V30 62 H 1.154321 -2.548625 -1.262469 0
M  V30 63 H 1.954025 -2.315949 -3.588480 0
M  V30 64 H 0.455058 1.563574 -5.256061 0
M  V30 65 H -0.892491 3.467456 -4.547354 0
M  V30 66 H -2.826665 4.556428 -3.712804 0
M  V30 67 H -1.315584 5.327687 -3.090919 0
M  V30 68 H -2.850322 5.528142 -2.235957 0
M  V30 69 H -1.383278 1.689419 -0.694751 0
M  V30 END ATOM
M  V30 BEGIN BOND
M  V30 1 2 1 2
M  V30 2 1 2 3
M  V30 3 1 3 4
M  V30 4 1 4 5
M  V30 5 1 5 6
M  V30 6 1 6 7
M  V30 7 1 7 8
M  V30 8 1 8 9
M  V30 9 1 9 10
M  V30 10 1 10 11
M  V30 11 1 11 12
M  V30 12 1 12 13
M  V30 13 2 13 14
M  V30 14 1 13 15
M  V30 15 1 15 16
M  V30 16 2 16 17
M  V30 17 1 17 18
M  V30 18 1 18 19
M  V30 19 1 19 20
M  V30 20 1 19 21
M  V30 21 1 19 22
M  V30 22 2 18 23
M  V30 23 1 23 24
M  V30 24 1 24 25
M  V30 25 1 25 26
M  V30 26 1 25 27
M  V30 27 1 25 28
M  V30 28 2 24 29
M  V30 29 1 11 30
M  V30 30 2 30 31
M  V30 31 1 31 32
M  V30 32 2 32 33
M  V30 33 1 33 34
M  V30 34 2 34 35
M  V30 35 1 35 36
M  V30 36 2 36 37
M  V30 37 1 37 38
M  V30 38 1 38 39
M  V30 39 1 37 40
M  V30 40 2 40 41
M  V30 41 1 8 3
M  V30 42 1 29 16
M  V30 43 1 41 30
M  V30 44 1 10 5
M  V30 45 1 41 34
M  V30 46 1 1 42
M  V30 47 1 1 43
M  V30 48 1 2 44
M  V30 49 1 3 45 CFG=1
M  V30 50 1 4 46
M  V30 51 1 4 47
M  V30 52 1 6 48
M  V30 53 1 6 49
M  V30 54 1 7 50
M  V30 55 1 7 51
M  V30 56 1 8 52 CFG=3
M  V30 57 1 9 53
M  V30 58 1 9 54
M  V30 59 1 10 55 CFG=3
M  V30 60 1 11 56 CFG=1
M  V30 61 1 12 57
M  V30 62 1 15 58
M  V30 63 1 17 59
M  V30 64 1 23 60
M  V30 65 1 29 61
M  V30 66 1 31 62
M  V30 67 1 32 63
M  V30 68 1 35 64
M  V30 69 1 36 65
M  V30 70 1 39 66
M  V30 71 1 39 67
M  V30 72 1 39 68
M  V30 73 1 40 69
M  V30 END BOND
M  V30 END CTAB
M  END
>  <catalyst_id>  (1) 
IQMKPBFOEWWDIQ_BZXROKRSSA_NONE

>  <source_smiles>  (1) 
C=C[C@H]1CN2CC[C@H]1C[C@H]2[C@H](NC(=S)Nc1cc(C(F)(F)F)cc(C(F)(F)F)c1)c1ccnc2ccc(OC)cc12

>  <axial_configuration>  (1) 
none

>  <inchikey>  (1) 
IQMKPBFOEWWDIQ-BZXROKRSSA-N

>  <build_source>  (1) 
smiles

>  <rdkit_version>  (1) 
2025.09.6

>  <random_seed>  (1) 
42

>  <generated_at>  (1) 
2026-05-19T12:33:40

$$$$
