catalyst351
     RDKit          3D

  0  0  0  0  0  0  0  0  0  0999 V3000
M  V30 BEGIN CTAB
M  V30 COUNTS 55 57 0 0 0
M  V30 BEGIN ATOM
M  V30 1 C -4.431885 1.451644 -0.037713 0
M  V30 2 N -3.544602 0.731984 0.895145 0
M  V30 3 C -3.796141 1.272807 2.237931 0
M  V30 4 C -2.099128 0.886777 0.496403 0 CFG=2
M  V30 5 C -1.831953 0.432207 -0.949710 0
M  V30 6 C -1.038961 1.225350 -1.796241 0
M  V30 7 C -0.773273 0.825721 -3.107443 0
M  V30 8 C -1.299172 -0.369335 -3.593139 0
M  V30 9 C -2.094021 -1.164213 -2.770520 0
M  V30 10 C -2.360428 -0.765891 -1.459533 0
M  V30 11 C -1.017903 0.259834 1.500867 0 CFG=2
M  V30 12 N 0.368507 0.718339 1.229137 0
M  V30 13 C 0.916226 1.937137 1.492251 0
M  V30 14 S 0.149419 3.219010 2.244139 0
M  V30 15 N 2.230198 2.111760 1.157445 0
M  V30 16 C 3.084310 1.413919 0.278953 0
M  V30 17 C 4.451881 1.699641 0.363259 0
M  V30 18 C 5.370598 1.065003 -0.479668 0
M  V30 19 C 4.936612 0.137175 -1.435233 0
M  V30 20 C 5.919804 -0.531777 -2.364370 0
M  V30 21 F 7.157328 -0.681948 -1.814665 0
M  V30 22 F 5.529657 -1.779953 -2.746041 0
M  V30 23 F 6.104326 0.171451 -3.515226 0
M  V30 24 C 3.563471 -0.119423 -1.543267 0
M  V30 25 C 2.647751 0.516204 -0.696282 0
M  V30 26 C -1.038573 -1.267193 1.630397 0
M  V30 27 C -0.379216 -2.104830 0.712642 0
M  V30 28 C -0.397990 -3.493618 0.860107 0
M  V30 29 C -1.072310 -4.071601 1.931166 0
M  V30 30 C -1.727589 -3.261366 2.853865 0
M  V30 31 C -1.709287 -1.872080 2.705753 0
M  V30 32 H -5.477077 1.356472 0.280402 0
M  V30 33 H -4.399282 1.034443 -1.048033 0
M  V30 34 H -4.190125 2.519490 -0.095104 0
M  V30 35 H -3.489556 2.321327 2.326072 0
M  V30 36 H -3.289952 0.695029 3.013081 0
M  V30 37 H -4.862846 1.209553 2.484713 0
M  V30 38 H -1.922127 1.970640 0.495810 0
M  V30 39 H -0.617882 2.161717 -1.435117 0
M  V30 40 H -0.157984 1.450152 -3.750002 0
M  V30 41 H -1.095653 -0.678401 -4.614872 0
M  V30 42 H -2.511508 -2.094120 -3.147318 0
M  V30 43 H -2.986782 -1.394597 -0.827951 0
M  V30 44 H -1.224682 0.654224 2.501772 0
M  V30 45 H 1.054483 -0.024239 1.222950 0
M  V30 46 H 2.629718 2.939247 1.589295 0
M  V30 47 H 4.825023 2.409865 1.097991 0
M  V30 48 H 6.430177 1.299676 -0.384982 0
M  V30 49 H 3.192311 -0.809984 -2.300182 0
M  V30 50 H 1.593641 0.321614 -0.862319 0
M  V30 51 H 0.143965 -1.683845 -0.143253 0
M  V30 52 H 0.109873 -4.122553 0.133653 0
M  V30 53 H -1.089703 -5.151994 2.045566 0
M  V30 54 H -2.255892 -3.709622 3.691379 0
M  V30 55 H -2.225797 -1.266827 3.446044 0
M  V30 END ATOM
M  V30 BEGIN BOND
M  V30 1 1 1 2
M  V30 2 1 2 3
M  V30 3 1 2 4
M  V30 4 1 4 5
M  V30 5 2 5 6
M  V30 6 1 6 7
M  V30 7 2 7 8
M  V30 8 1 8 9
M  V30 9 2 9 10
M  V30 10 1 4 11
M  V30 11 1 11 12
M  V30 12 1 12 13
M  V30 13 2 13 14
M  V30 14 1 13 15
M  V30 15 1 15 16
M  V30 16 2 16 17
M  V30 17 1 17 18
M  V30 18 2 18 19
M  V30 19 1 19 20
M  V30 20 1 20 21
M  V30 21 1 20 22
M  V30 22 1 20 23
M  V30 23 1 19 24
M  V30 24 2 24 25
M  V30 25 1 11 26
M  V30 26 2 26 27
M  V30 27 1 27 28
M  V30 28 2 28 29
M  V30 29 1 29 30
M  V30 30 2 30 31
M  V30 31 1 10 5
M  V30 32 1 25 16
M  V30 33 1 31 26
M  V30 34 1 1 32
M  V30 35 1 1 33
M  V30 36 1 1 34
M  V30 37 1 3 35
M  V30 38 1 3 36
M  V30 39 1 3 37
M  V30 40 1 4 38 CFG=3
M  V30 41 1 6 39
M  V30 42 1 7 40
M  V30 43 1 8 41
M  V30 44 1 9 42
M  V30 45 1 10 43
M  V30 46 1 11 44 CFG=1
M  V30 47 1 12 45
M  V30 48 1 15 46
M  V30 49 1 17 47
M  V30 50 1 18 48
M  V30 51 1 24 49
M  V30 52 1 25 50
M  V30 53 1 27 51
M  V30 54 1 28 52
M  V30 55 1 29 53
M  V30 56 1 30 54
M  V30 57 1 31 55
M  V30 END BOND
M  V30 END CTAB
M  END
>  <catalyst_id>  (1) 
UIBUFOZRLAFLED_FGZHOGPDSA_NONE

>  <source_smiles>  (1) 
CN(C)[C@H](c1ccccc1)[C@H](NC(=S)Nc1ccc(C(F)(F)F)cc1)c1ccccc1

>  <axial_configuration>  (1) 
none

>  <inchikey>  (1) 
UIBUFOZRLAFLED-FGZHOGPDSA-N

>  <build_source>  (1) 
smiles

>  <rdkit_version>  (1) 
2025.09.6

>  <random_seed>  (1) 
42

>  <generated_at>  (1) 
2026-05-19T12:30:07

$$$$
