catalyst46
     RDKit          3D

  0  0  0  0  0  0  0  0  0  0999 V3000
M  V30 BEGIN CTAB
M  V30 COUNTS 67 71 0 0 0
M  V30 BEGIN ATOM
M  V30 1 C -3.535373 4.110214 0.077410 0
M  V30 2 C -2.779390 3.004586 0.070502 0
M  V30 3 C -1.991640 2.528840 -1.127656 0 CFG=1
M  V30 4 C -0.480470 2.355659 -0.812094 0
M  V30 5 N -0.023753 0.949239 -1.010564 0
M  V30 6 C -0.218935 0.598992 -2.442520 0
M  V30 7 C -1.658666 0.841998 -2.914588 0
M  V30 8 C -2.527825 1.191354 -1.696188 0 CFG=1
M  V30 9 C -2.327987 0.039945 -0.692039 0
M  V30 10 C -0.881762 0.072873 -0.131460 0 CFG=1
M  V30 11 C -0.257608 -1.351539 0.155099 0 CFG=1
M  V30 12 N 0.894101 -1.319170 1.072821 0
M  V30 13 C 2.192070 -0.964448 0.836660 0
M  V30 14 S 3.287416 -1.392236 2.024750 0
M  V30 15 N 2.418189 -0.281034 -0.324774 0
M  V30 16 C 3.616442 -0.003063 -1.016848 0
M  V30 17 C 4.761894 -0.793188 -0.945338 0
M  V30 18 C 5.897279 -0.464491 -1.695824 0
M  V30 19 C 5.903661 0.648830 -2.536644 0
M  V30 20 O 7.075512 0.854042 -3.209675 0
M  V30 21 C 7.148709 2.009748 -4.034402 0
M  V30 22 C 4.754312 1.429444 -2.630488 0
M  V30 23 C 3.617904 1.098377 -1.881002 0
M  V30 24 C -1.264747 -2.382925 0.671228 0
M  V30 25 C -1.506641 -3.499521 -0.144590 0
M  V30 26 C -2.434565 -4.436405 0.258978 0
M  V30 27 N -3.134191 -4.345659 1.403633 0
M  V30 28 C -2.901088 -3.299378 2.208865 0
M  V30 29 C -3.621107 -3.233296 3.392614 0
M  V30 30 C -3.451709 -2.194824 4.312574 0
M  V30 31 C -2.530199 -1.193642 4.050721 0
M  V30 32 O -2.249997 -0.123591 4.852523 0
M  V30 33 C -2.923417 -0.063214 6.104194 0
M  V30 34 C -1.796588 -1.243241 2.861848 0
M  V30 35 C -1.966992 -2.279959 1.908736 0
M  V30 36 H -4.077548 4.405188 0.971209 0
M  V30 37 H -3.635472 4.743871 -0.798344 0
M  V30 38 H -2.720271 2.414221 0.983395 0
M  V30 39 H -2.075806 3.286421 -1.920107 0
M  V30 40 H -0.237436 2.676017 0.209310 0
M  V30 41 H 0.108831 3.013240 -1.465027 0
M  V30 42 H 0.062257 -0.445594 -2.617788 0
M  V30 43 H 0.471550 1.188727 -3.058043 0
M  V30 44 H -2.043467 -0.054748 -3.414666 0
M  V30 45 H -1.686562 1.657037 -3.647664 0
M  V30 46 H -3.580220 1.274279 -1.989561 0
M  V30 47 H -2.539781 -0.906071 -1.203916 0
M  V30 48 H -3.047260 0.126594 0.130529 0
M  V30 49 H -0.922773 0.577216 0.841770 0
M  V30 50 H 0.145778 -1.727867 -0.793187 0
M  V30 51 H 0.799925 -1.851972 1.930983 0
M  V30 52 H 1.618396 0.289149 -0.606536 0
M  V30 53 H 4.797518 -1.693614 -0.342352 0
M  V30 54 H 6.783026 -1.091350 -1.625114 0
M  V30 55 H 8.150401 2.044265 -4.473571 0
M  V30 56 H 6.426966 1.953621 -4.855936 0
M  V30 57 H 7.010572 2.924200 -3.447942 0
M  V30 58 H 4.704361 2.301004 -3.273685 0
M  V30 59 H 2.737570 1.729986 -1.966781 0
M  V30 60 H -0.985883 -3.641010 -1.086889 0
M  V30 61 H -2.650159 -5.311252 -0.347955 0
M  V30 62 H -4.339743 -4.021192 3.609965 0
M  V30 63 H -4.050997 -2.209337 5.216341 0
M  V30 64 H -2.685002 -0.933932 6.724024 0
M  V30 65 H -2.569732 0.828092 6.631311 0
M  V30 66 H -4.004604 0.039181 5.964577 0
M  V30 67 H -1.067270 -0.453693 2.705189 0
M  V30 END ATOM
M  V30 BEGIN BOND
M  V30 1 2 1 2
M  V30 2 1 2 3
M  V30 3 1 3 4
M  V30 4 1 4 5
M  V30 5 1 5 6
M  V30 6 1 6 7
M  V30 7 1 7 8
M  V30 8 1 8 9
M  V30 9 1 9 10
M  V30 10 1 10 11
M  V30 11 1 11 12
M  V30 12 1 12 13
M  V30 13 2 13 14
M  V30 14 1 13 15
M  V30 15 1 15 16
M  V30 16 2 16 17
M  V30 17 1 17 18
M  V30 18 2 18 19
M  V30 19 1 19 20
M  V30 20 1 20 21
M  V30 21 1 19 22
M  V30 22 2 22 23
M  V30 23 1 11 24
M  V30 24 2 24 25
M  V30 25 1 25 26
M  V30 26 2 26 27
M  V30 27 1 27 28
M  V30 28 2 28 29
M  V30 29 1 29 30
M  V30 30 2 30 31
M  V30 31 1 31 32
M  V30 32 1 32 33
M  V30 33 1 31 34
M  V30 34 2 34 35
M  V30 35 1 8 3
M  V30 36 1 23 16
M  V30 37 1 35 24
M  V30 38 1 10 5
M  V30 39 1 35 28
M  V30 40 1 1 36
M  V30 41 1 1 37
M  V30 42 1 2 38
M  V30 43 1 3 39 CFG=3
M  V30 44 1 4 40
M  V30 45 1 4 41
M  V30 46 1 6 42
M  V30 47 1 6 43
M  V30 48 1 7 44
M  V30 49 1 7 45
M  V30 50 1 8 46 CFG=3
M  V30 51 1 9 47
M  V30 52 1 9 48
M  V30 53 1 10 49 CFG=1
M  V30 54 1 11 50 CFG=3
M  V30 55 1 12 51
M  V30 56 1 15 52
M  V30 57 1 17 53
M  V30 58 1 18 54
M  V30 59 1 21 55
M  V30 60 1 21 56
M  V30 61 1 21 57
M  V30 62 1 22 58
M  V30 63 1 23 59
M  V30 64 1 25 60
M  V30 65 1 26 61
M  V30 66 1 29 62
M  V30 67 1 30 63
M  V30 68 1 33 64
M  V30 69 1 33 65
M  V30 70 1 33 66
M  V30 71 1 34 67
M  V30 END BOND
M  V30 END CTAB
M  END
>  <catalyst_id>  (1) 
DRVKEJLNJZNMLS_MOVYAIRMSA_NONE

>  <source_smiles>  (1) 
C=C[C@H]1CN2CC[C@H]1C[C@H]2[C@@H](NC(=S)Nc1ccc(OC)cc1)c1ccnc2ccc(OC)cc12

>  <axial_configuration>  (1) 
none

>  <inchikey>  (1) 
DRVKEJLNJZNMLS-MOVYAIRMSA-N

>  <build_source>  (1) 
smiles

>  <rdkit_version>  (1) 
2025.09.6

>  <random_seed>  (1) 
42

>  <generated_at>  (1) 
2026-05-19T12:32:58

$$$$
