catalyst416
     RDKit          3D

  0  0  0  0  0  0  0  0  0  0999 V3000
M  V30 BEGIN CTAB
M  V30 COUNTS 29 30 0 0 0
M  V30 BEGIN ATOM
M  V30 1 C 3.632000 0.203328 -0.458609 0
M  V30 2 C 3.092024 0.496549 0.932241 0
M  V30 3 N 1.706398 0.031620 0.909118 0
M  V30 4 C 1.222392 0.312370 -0.452913 0 CFG=2
M  V30 5 C -0.076796 -0.425001 -0.852191 0
M  V30 6 N -1.311945 0.158403 -0.300854 0
M  V30 7 C -2.498826 -0.426342 -0.934178 0
M  V30 8 C -3.618455 0.043263 -0.026051 0
M  V30 9 C -2.996056 0.049944 1.361892 0
M  V30 10 C -1.493104 -0.087012 1.132662 0
M  V30 11 C 2.409671 -0.153217 -1.292592 0
M  V30 12 H 4.143298 1.081863 -0.866860 0
M  V30 13 H 4.344383 -0.628603 -0.449657 0
M  V30 14 H 3.667788 -0.012560 1.710598 0
M  V30 15 H 3.127296 1.573901 1.132525 0
M  V30 16 H 1.152679 0.554398 1.584251 0
M  V30 17 H 1.087526 1.395122 -0.582383 0
M  V30 18 H -0.144194 -0.371825 -1.947626 0
M  V30 19 H -0.000783 -1.492271 -0.602491 0
M  V30 20 H -2.456192 -1.523167 -0.944319 0
M  V30 21 H -2.637850 -0.068825 -1.959323 0
M  V30 22 H -3.930308 1.059363 -0.297227 0
M  V30 23 H -4.498081 -0.605124 -0.081286 0
M  V30 24 H -3.241544 0.980475 1.885262 0
M  V30 25 H -3.370838 -0.784638 1.964418 0
M  V30 26 H -1.172717 -1.095761 1.421691 0
M  V30 27 H -0.953095 0.641645 1.743143 0
M  V30 28 H 2.381056 -1.238336 -1.454725 0
M  V30 29 H 2.434274 0.330438 -2.274516 0
M  V30 END ATOM
M  V30 BEGIN BOND
M  V30 1 1 1 2
M  V30 2 1 2 3
M  V30 3 1 3 4
M  V30 4 1 4 5
M  V30 5 1 5 6
M  V30 6 1 6 7
M  V30 7 1 7 8
M  V30 8 1 8 9
M  V30 9 1 9 10
M  V30 10 1 4 11
M  V30 11 1 11 1
M  V30 12 1 10 6
M  V30 13 1 1 12
M  V30 14 1 1 13
M  V30 15 1 2 14
M  V30 16 1 2 15
M  V30 17 1 3 16
M  V30 18 1 4 17 CFG=1
M  V30 19 1 5 18
M  V30 20 1 5 19
M  V30 21 1 7 20
M  V30 22 1 7 21
M  V30 23 1 8 22
M  V30 24 1 8 23
M  V30 25 1 9 24
M  V30 26 1 9 25
M  V30 27 1 10 26
M  V30 28 1 10 27
M  V30 29 1 11 28
M  V30 30 1 11 29
M  V30 END BOND
M  V30 END CTAB
M  END
>  <catalyst_id>  (1) 
YLBWRMSQRFEIEB_VIFPVBQESA_NONE

>  <source_smiles>  (1) 
C1CN[C@H](CN2CCCC2)C1

>  <axial_configuration>  (1) 
none

>  <inchikey>  (1) 
YLBWRMSQRFEIEB-VIFPVBQESA-N

>  <build_source>  (1) 
smiles

>  <rdkit_version>  (1) 
2025.09.6

>  <random_seed>  (1) 
42

>  <generated_at>  (1) 
2026-05-19T12:29:45

$$$$
