catalyst333
     RDKit          3D

  0  0  0  0  0  0  0  0  0  0999 V3000
M  V30 BEGIN CTAB
M  V30 COUNTS 58 60 0 0 0
M  V30 BEGIN ATOM
M  V30 1 C 2.708743 -1.928648 -1.522788 0
M  V30 2 C 1.287798 -2.435237 -1.185769 0
M  V30 3 C 1.422816 -3.774362 -0.435052 0
M  V30 4 C 0.568123 -2.688124 -2.528792 0
M  V30 5 C 0.507038 -1.354260 -0.347623 0 CFG=1
M  V30 6 C -0.955940 -1.743506 0.001070 0
M  V30 7 P -2.226288 -0.583223 -0.716274 0
M  V30 8 C -1.785647 1.007614 0.055386 0
M  V30 9 C -1.741644 2.152645 -0.755435 0
M  V30 10 C -1.400630 3.396968 -0.219768 0
M  V30 11 C -1.087317 3.511318 1.131813 0
M  V30 12 C -1.128139 2.385425 1.949708 0
M  V30 13 C -1.482452 1.143450 1.416902 0
M  V30 14 C -3.745850 -1.062038 0.187661 0
M  V30 15 C -4.673270 -0.099786 0.619600 0
M  V30 16 C -5.842677 -0.470437 1.290941 0
M  V30 17 C -6.116079 -1.813669 1.527128 0
M  V30 18 C -5.225609 -2.785775 1.082817 0
M  V30 19 C -4.055884 -2.413091 0.412294 0
M  V30 20 N 1.216507 -1.041981 0.912998 0
M  V30 21 C 2.079771 -0.019282 1.200605 0
M  V30 22 S 2.975465 -0.188492 2.601188 0
M  V30 23 N 2.062140 1.029693 0.321807 0
M  V30 24 C 3.017093 2.039266 0.072950 0
M  V30 25 C 4.377271 1.916271 0.360577 0
M  V30 26 C 5.266001 2.951622 0.051602 0
M  V30 27 C 4.804816 4.112475 -0.563782 0
M  V30 28 C 3.455577 4.234386 -0.881872 0
M  V30 29 C 2.569720 3.198858 -0.572910 0
M  V30 30 H 3.328887 -1.826096 -0.626780 0
M  V30 31 H 2.673134 -0.956143 -2.026181 0
M  V30 32 H 3.228451 -2.626109 -2.190238 0
M  V30 33 H 1.963662 -4.509132 -1.043154 0
M  V30 34 H 0.449239 -4.211098 -0.193423 0
M  V30 35 H 1.979556 -3.658415 0.500658 0
M  V30 36 H 1.149884 -3.363995 -3.166599 0
M  V30 37 H 0.427873 -1.752639 -3.081921 0
M  V30 38 H -0.414517 -3.149452 -2.392583 0
M  V30 39 H 0.510494 -0.448408 -0.962020 0
M  V30 40 H -1.092724 -1.801029 1.087391 0
M  V30 41 H -1.196117 -2.737024 -0.384376 0
M  V30 42 H -1.982120 2.088582 -1.815303 0
M  V30 43 H -1.379207 4.275998 -0.858953 0
M  V30 44 H -0.814605 4.476853 1.550430 0
M  V30 45 H -0.885319 2.471115 3.006294 0
M  V30 46 H -1.517793 0.286673 2.085804 0
M  V30 47 H -4.503775 0.959616 0.438700 0
M  V30 48 H -6.540228 0.294199 1.622907 0
M  V30 49 H -7.025992 -2.102174 2.046354 0
M  V30 50 H -5.442673 -3.837641 1.250048 0
M  V30 51 H -3.399860 -3.204479 0.060065 0
M  V30 52 H 1.275061 -1.791887 1.593799 0
M  V30 53 H 1.137824 1.225498 -0.042880 0
M  V30 54 H 4.786480 1.012163 0.797624 0
M  V30 55 H 6.321748 2.842591 0.286528 0
M  V30 56 H 5.497751 4.914744 -0.802563 0
M  V30 57 H 3.090926 5.133308 -1.371422 0
M  V30 58 H 1.522509 3.316301 -0.835186 0
M  V30 END ATOM
M  V30 BEGIN BOND
M  V30 1 1 1 2
M  V30 2 1 2 3
M  V30 3 1 2 4
M  V30 4 1 2 5
M  V30 5 1 5 6
M  V30 6 1 6 7
M  V30 7 1 7 8
M  V30 8 2 8 9
M  V30 9 1 9 10
M  V30 10 2 10 11
M  V30 11 1 11 12
M  V30 12 2 12 13
M  V30 13 1 7 14
M  V30 14 2 14 15
M  V30 15 1 15 16
M  V30 16 2 16 17
M  V30 17 1 17 18
M  V30 18 2 18 19
M  V30 19 1 5 20
M  V30 20 1 20 21
M  V30 21 2 21 22
M  V30 22 1 21 23
M  V30 23 1 23 24
M  V30 24 2 24 25
M  V30 25 1 25 26
M  V30 26 2 26 27
M  V30 27 1 27 28
M  V30 28 2 28 29
M  V30 29 1 13 8
M  V30 30 1 19 14
M  V30 31 1 29 24
M  V30 32 1 1 30
M  V30 33 1 1 31
M  V30 34 1 1 32
M  V30 35 1 3 33
M  V30 36 1 3 34
M  V30 37 1 3 35
M  V30 38 1 4 36
M  V30 39 1 4 37
M  V30 40 1 4 38
M  V30 41 1 5 39 CFG=3
M  V30 42 1 6 40
M  V30 43 1 6 41
M  V30 44 1 9 42
M  V30 45 1 10 43
M  V30 46 1 11 44
M  V30 47 1 12 45
M  V30 48 1 13 46
M  V30 49 1 15 47
M  V30 50 1 16 48
M  V30 51 1 17 49
M  V30 52 1 18 50
M  V30 53 1 19 51
M  V30 54 1 20 52
M  V30 55 1 23 53
M  V30 56 1 25 54
M  V30 57 1 26 55
M  V30 58 1 27 56
M  V30 59 1 28 57
M  V30 60 1 29 58
M  V30 END BOND
M  V30 END CTAB
M  END
>  <catalyst_id>  (1) 
SKRTVFPBJLMUKF_HSZRJFAPSA_NONE

>  <source_smiles>  (1) 
CC(C)(C)[C@@H](CP(c1ccccc1)c1ccccc1)NC(=S)Nc1ccccc1

>  <axial_configuration>  (1) 
none

>  <inchikey>  (1) 
SKRTVFPBJLMUKF-HSZRJFAPSA-N

>  <build_source>  (1) 
smiles

>  <rdkit_version>  (1) 
2025.09.6

>  <random_seed>  (1) 
42

>  <generated_at>  (1) 
2026-05-19T12:34:34

$$$$
