catalyst350
     RDKit          3D

  0  0  0  0  0  0  0  0  0  0999 V3000
M  V30 BEGIN CTAB
M  V30 COUNTS 50 53 0 0 0
M  V30 BEGIN ATOM
M  V30 1 C 3.994867 -0.055320 2.774689 0
M  V30 2 C 3.063588 0.091676 1.823278 0
M  V30 3 C 3.147832 -0.546150 0.456310 0 CFG=1
M  V30 4 C 1.915275 -1.438596 0.155980 0
M  V30 5 N 1.352646 -1.173531 -1.192338 0
M  V30 6 C 2.436473 -1.325248 -2.189879 0
M  V30 7 C 3.545544 -0.281666 -1.984867 0
M  V30 8 C 3.278864 0.495775 -0.683515 0 CFG=1
M  V30 9 C 1.939120 1.235244 -0.864235 0
M  V30 10 C 0.828031 0.224413 -1.263270 0 CFG=2
M  V30 11 C -0.495983 0.483690 -0.457903 0 CFG=1
M  V30 12 O -1.001295 1.784509 -0.845586 0
M  V30 13 C -1.037197 2.747864 0.109863 0
M  V30 14 C -1.621414 4.005501 -0.456349 0
M  V30 15 O -0.649762 2.626925 1.263427 0
M  V30 16 C -1.649948 -0.488511 -0.694608 0
M  V30 17 C -1.821892 -1.076924 -1.955079 0
M  V30 18 C -2.881758 -1.937084 -2.159387 0
M  V30 19 N -3.791280 -2.242290 -1.217328 0
M  V30 20 C -3.660361 -1.677190 -0.009615 0
M  V30 21 C -4.615924 -1.994758 0.946404 0
M  V30 22 C -4.583807 -1.454157 2.230894 0
M  V30 23 C -3.571958 -0.575747 2.564173 0
M  V30 24 O -3.566421 -0.053635 3.822693 0
M  V30 25 C -2.593549 -0.239439 1.633136 0
M  V30 26 C -2.610492 -0.781839 0.321522 0
M  V30 27 H 3.880022 0.425320 3.741899 0
M  V30 28 H 4.888461 -0.651272 2.616798 0
M  V30 29 H 2.189522 0.701173 2.047251 0
M  V30 30 H 4.041302 -1.186525 0.425396 0
M  V30 31 H 2.215094 -2.493713 0.211486 0
M  V30 32 H 1.133237 -1.332724 0.917184 0
M  V30 33 H 2.855554 -2.337683 -2.130164 0
M  V30 34 H 2.024982 -1.239214 -3.203189 0
M  V30 35 H 4.521650 -0.778617 -1.938183 0
M  V30 36 H 3.573873 0.409825 -2.835590 0
M  V30 37 H 4.089740 1.206101 -0.487552 0
M  V30 38 H 1.689511 1.776916 0.052845 0
M  V30 39 H 2.041398 1.990060 -1.654331 0
M  V30 40 H 0.590693 0.436191 -2.316233 0
M  V30 41 H -0.219966 0.454635 0.600061 0
M  V30 42 H -2.639001 3.816128 -0.807238 0
M  V30 43 H -0.993561 4.370494 -1.272985 0
M  V30 44 H -1.659537 4.770883 0.324051 0
M  V30 45 H -1.142687 -0.886364 -2.778030 0
M  V30 46 H -3.033021 -2.418252 -3.121389 0
M  V30 47 H -5.414258 -2.684092 0.680773 0
M  V30 48 H -5.346121 -1.718562 2.957328 0
M  V30 49 H -2.819541 0.563442 3.904142 0
M  V30 50 H -1.816543 0.452336 1.937260 0
M  V30 END ATOM
M  V30 BEGIN BOND
M  V30 1 2 1 2
M  V30 2 1 2 3
M  V30 3 1 3 4
M  V30 4 1 4 5
M  V30 5 1 5 6
M  V30 6 1 6 7
M  V30 7 1 7 8
M  V30 8 1 8 9
M  V30 9 1 9 10
M  V30 10 1 10 11
M  V30 11 1 11 12
M  V30 12 1 12 13
M  V30 13 1 13 14
M  V30 14 2 13 15
M  V30 15 1 11 16
M  V30 16 2 16 17
M  V30 17 1 17 18
M  V30 18 2 18 19
M  V30 19 1 19 20
M  V30 20 2 20 21
M  V30 21 1 21 22
M  V30 22 2 22 23
M  V30 23 1 23 24
M  V30 24 1 23 25
M  V30 25 2 25 26
M  V30 26 1 8 3
M  V30 27 1 26 16
M  V30 28 1 10 5
M  V30 29 1 26 20
M  V30 30 1 1 27
M  V30 31 1 1 28
M  V30 32 1 2 29
M  V30 33 1 3 30 CFG=1
M  V30 34 1 4 31
M  V30 35 1 4 32
M  V30 36 1 6 33
M  V30 37 1 6 34
M  V30 38 1 7 35
M  V30 39 1 7 36
M  V30 40 1 8 37 CFG=1
M  V30 41 1 9 38
M  V30 42 1 9 39
M  V30 43 1 10 40 CFG=3
M  V30 44 1 11 41 CFG=1
M  V30 45 1 14 42
M  V30 46 1 14 43
M  V30 47 1 14 44
M  V30 48 1 17 45
M  V30 49 1 18 46
M  V30 50 1 21 47
M  V30 51 1 22 48
M  V30 52 1 24 49
M  V30 53 1 25 50
M  V30 END BOND
M  V30 END CTAB
M  END
>  <catalyst_id>  (1) 
UHGZQENSUZKWAS_YJPXFSGGSA_NONE

>  <source_smiles>  (1) 
C=C[C@H]1CN2CC[C@H]1C[C@@H]2[C@@H](OC(C)=O)c1ccnc2ccc(O)cc12

>  <axial_configuration>  (1) 
none

>  <inchikey>  (1) 
UHGZQENSUZKWAS-YJPXFSGGSA-N

>  <build_source>  (1) 
smiles

>  <rdkit_version>  (1) 
2025.09.6

>  <random_seed>  (1) 
42

>  <generated_at>  (1) 
2026-05-19T12:30:16

$$$$
