catalyst210
     RDKit          3D

  0  0  0  0  0  0  0  0  0  0999 V3000
M  V30 BEGIN CTAB
M  V30 COUNTS 82 84 0 0 0
M  V30 BEGIN ATOM
M  V30 1 C 1.058421 -4.163714 0.339023 0
M  V30 2 C 0.531000 -2.799916 -0.088164 0
M  V30 3 C 1.575377 -1.674628 -0.005427 0 CFG=2
M  V30 4 C 2.123017 -1.500643 1.416070 0
M  V30 5 C 1.068499 -0.350141 -0.653760 0 CFG=1
M  V30 6 C 0.076262 0.505020 0.156656 0
M  V30 7 P -1.696505 0.102831 0.151960 0 CHG=1
M  V30 8 C -2.431752 1.763996 0.395457 0
M  V30 9 C -3.929725 1.833372 0.551392 0
M  V30 10 C -4.510036 1.809333 1.825552 0
M  V30 11 C -5.898221 1.844430 1.977011 0
M  V30 12 C -6.732762 1.892487 0.856141 0
M  V30 13 C -8.221722 1.960684 1.018067 0
M  V30 14 C -6.154703 1.929315 -0.416846 0
M  V30 15 C -4.766057 1.893497 -0.567782 0
M  V30 16 C -2.217823 -0.853670 1.551914 0
M  V30 17 C -3.454760 -1.515352 1.534400 0
M  V30 18 C -3.902720 -2.249340 2.634491 0
M  V30 19 C -3.126817 -2.317764 3.786023 0
M  V30 20 C -1.915859 -1.635284 3.839939 0
M  V30 21 C -1.474482 -0.899626 2.736297 0
M  V30 22 C -2.153629 -0.527935 -1.439541 0
M  V30 23 C -2.142746 0.313980 -2.559723 0
M  V30 24 C -2.475050 -0.163768 -3.829467 0
M  V30 25 C -2.819043 -1.499905 -4.002574 0
M  V30 26 C -2.821060 -2.356390 -2.906820 0
M  V30 27 C -2.485051 -1.873420 -1.639538 0
M  V30 28 N 2.268260 0.474356 -0.955532 0
M  V30 29 C 2.497901 1.290286 -2.024761 0
M  V30 30 S 1.434565 1.610859 -3.270363 0
M  V30 31 N 3.701429 1.942917 -2.048372 0
M  V30 32 C 4.929452 1.664708 -1.415590 0
M  V30 33 C 5.247007 0.432562 -0.839860 0
M  V30 34 C 6.492711 0.217836 -0.225196 0
M  V30 35 C 6.809450 -1.126858 0.385949 0
M  V30 36 F 7.232810 -2.029464 -0.538725 0
M  V30 37 F 5.733291 -1.690782 1.001706 0
M  V30 38 F 7.788072 -1.065987 1.330767 0
M  V30 39 C 7.441103 1.251513 -0.228962 0
M  V30 40 C 7.158764 2.482118 -0.840813 0
M  V30 41 C 8.175987 3.598582 -0.833501 0
M  V30 42 F 8.074517 4.418115 -1.915971 0
M  V30 43 F 9.460495 3.147931 -0.824904 0
M  V30 44 F 8.050103 4.399913 0.258705 0
M  V30 45 C 5.897845 2.674534 -1.430085 0
M  V30 46 Br 0.000000 0.000000 0.000000 0 CHG=-1
M  V30 47 H 1.960730 -4.430383 -0.220019 0
M  V30 48 H 1.289826 -4.188123 1.407879 0
M  V30 49 H 0.302654 -4.932778 0.148796 0
M  V30 50 H -0.337363 -2.561117 0.527174 0
M  V30 51 H 0.185877 -2.887626 -1.124455 0
M  V30 52 H 2.427402 -2.007633 -0.617547 0
M  V30 53 H 2.787719 -0.636093 1.497318 0
M  V30 54 H 2.711849 -2.374869 1.713380 0
M  V30 55 H 1.322213 -1.383670 2.147382 0
M  V30 56 H 0.615266 -0.606439 -1.615291 0
M  V30 57 H 0.106058 1.515278 -0.272934 0
M  V30 58 H 0.433456 0.651049 1.179661 0
M  V30 59 H -2.126323 2.420470 -0.427480 0
M  V30 60 H -1.963472 2.193264 1.290789 0
M  V30 61 H -3.884177 1.749211 2.713381 0
M  V30 62 H -6.322182 1.825810 2.978171 0
M  V30 63 H -8.543023 3.004337 1.089227 0
M  V30 64 H -8.729068 1.491032 0.168796 0
M  V30 65 H -8.541350 1.429390 1.920733 0
M  V30 66 H -6.781913 1.981154 -1.303834 0
M  V30 67 H -4.347804 1.913291 -1.570567 0
M  V30 68 H -4.100576 -1.439480 0.661400 0
M  V30 69 H -4.864358 -2.753719 2.592111 0
M  V30 70 H -3.473891 -2.885233 4.644905 0
M  V30 71 H -1.317108 -1.664779 4.746573 0
M  V30 72 H -0.546463 -0.347724 2.830145 0
M  V30 73 H -1.858598 1.358154 -2.459358 0
M  V30 74 H -2.452904 0.508474 -4.683242 0
M  V30 75 H -3.073921 -1.874472 -4.989867 0
M  V30 76 H -3.076504 -3.404722 -3.036335 0
M  V30 77 H -2.473085 -2.573760 -0.808938 0
M  V30 78 H 2.821826 0.720510 -0.146626 0
M  V30 79 H 3.710802 2.706767 -2.717905 0
M  V30 80 H 4.554289 -0.404727 -0.896136 0
M  V30 81 H 8.414965 1.092561 0.238169 0
M  V30 82 H 5.673333 3.636009 -1.891997 0
M  V30 END ATOM
M  V30 BEGIN BOND
M  V30 1 1 1 2
M  V30 2 1 2 3
M  V30 3 1 3 4
M  V30 4 1 3 5
M  V30 5 1 5 6
M  V30 6 1 6 7
M  V30 7 1 7 8
M  V30 8 1 8 9
M  V30 9 2 9 10
M  V30 10 1 10 11
M  V30 11 2 11 12
M  V30 12 1 12 13
M  V30 13 1 12 14
M  V30 14 2 14 15
M  V30 15 1 7 16
M  V30 16 2 16 17
M  V30 17 1 17 18
M  V30 18 2 18 19
M  V30 19 1 19 20
M  V30 20 2 20 21
M  V30 21 1 7 22
M  V30 22 2 22 23
M  V30 23 1 23 24
M  V30 24 2 24 25
M  V30 25 1 25 26
M  V30 26 2 26 27
M  V30 27 1 5 28
M  V30 28 1 28 29
M  V30 29 2 29 30
M  V30 30 1 29 31
M  V30 31 1 31 32
M  V30 32 2 32 33
M  V30 33 1 33 34
M  V30 34 1 34 35
M  V30 35 1 35 36
M  V30 36 1 35 37
M  V30 37 1 35 38
M  V30 38 2 34 39
M  V30 39 1 39 40
M  V30 40 1 40 41
M  V30 41 1 41 42
M  V30 42 1 41 43
M  V30 43 1 41 44
M  V30 44 2 40 45
M  V30 45 1 15 9
M  V30 46 1 21 16
M  V30 47 1 27 22
M  V30 48 1 45 32
M  V30 49 1 1 47
M  V30 50 1 1 48
M  V30 51 1 1 49
M  V30 52 1 2 50
M  V30 53 1 2 51
M  V30 54 1 3 52 CFG=3
M  V30 55 1 4 53
M  V30 56 1 4 54
M  V30 57 1 4 55
M  V30 58 1 5 56 CFG=3
M  V30 59 1 6 57
M  V30 60 1 6 58
M  V30 61 1 8 59
M  V30 62 1 8 60
M  V30 63 1 10 61
M  V30 64 1 11 62
M  V30 65 1 13 63
M  V30 66 1 13 64
M  V30 67 1 13 65
M  V30 68 1 14 66
M  V30 69 1 15 67
M  V30 70 1 17 68
M  V30 71 1 18 69
M  V30 72 1 19 70
M  V30 73 1 20 71
M  V30 74 1 21 72
M  V30 75 1 23 73
M  V30 76 1 24 74
M  V30 77 1 25 75
M  V30 78 1 26 76
M  V30 79 1 27 77
M  V30 80 1 28 78
M  V30 81 1 31 79
M  V30 82 1 33 80
M  V30 83 1 39 81
M  V30 84 1 45 82
M  V30 END BOND
M  V30 END CTAB
M  END
>  <catalyst_id>  (1) 
NEYKUULGLFVZAW_FISRIAINSA_NONE

>  <source_smiles>  (1) 
CC[C@H](C)[C@@H](C[P+](Cc1ccc(C)cc1)(c1ccccc1)c1ccccc1)NC(=S)Nc1cc(C(F)(F)F)cc(C(F)(F)F)c1.[Br-]

>  <axial_configuration>  (1) 
none

>  <inchikey>  (1) 
NEYKUULGLFVZAW-FISRIAINSA-N

>  <build_source>  (1) 
smiles

>  <rdkit_version>  (1) 
2025.09.6

>  <random_seed>  (1) 
42

>  <generated_at>  (1) 
2026-05-19T12:37:04

$$$$
