catalyst323
     RDKit          3D

  0  0  0  0  0  0  0  0  0  0999 V3000
M  V30 BEGIN CTAB
M  V30 COUNTS 87 92 0 0 0
M  V30 BEGIN ATOM
M  V30 1 C -6.645874 2.216951 1.547630 0
M  V30 2 C -5.880053 3.315329 1.518912 0
M  V30 3 C -4.503530 3.531156 2.115875 0 CFG=1
M  V30 4 C -3.942804 2.450196 3.083542 0
M  V30 5 N -2.654029 1.880813 2.607605 0
M  V30 6 C -1.652720 2.971622 2.558380 0
M  V30 7 C -2.122893 4.139248 1.679584 0
M  V30 8 C -3.452801 3.766781 0.999640 0 CFG=1
M  V30 9 C -3.201203 2.457451 0.227999 0
M  V30 10 C -2.874778 1.323134 1.227430 0 CFG=1
M  V30 11 C -1.688212 0.410546 0.739851 0 CFG=1
M  V30 12 N -1.145340 -0.338214 1.889606 0
M  V30 13 C 0.006259 -1.046496 2.005166 0
M  V30 14 S 0.460897 -1.550799 3.530072 0
M  V30 15 N 0.685993 -1.288348 0.853311 0
M  V30 16 C 1.956172 -2.014915 0.674392 0 CFG=1
M  V30 17 C 1.906604 -2.779883 -0.645661 0
M  V30 18 C 1.743907 -2.117187 -1.874792 0
M  V30 19 C 1.693352 -2.835447 -3.070091 0
M  V30 20 C 1.809410 -4.222995 -3.055455 0
M  V30 21 C 1.973802 -4.894212 -1.845890 0
M  V30 22 C 2.020106 -4.178754 -0.648061 0
M  V30 23 C 3.234136 -1.093007 0.756367 0 CFG=1
M  V30 24 N 3.018558 0.088302 1.640398 0
M  V30 25 S 2.568473 1.528279 0.920399 0
M  V30 26 C 4.149590 2.206831 0.465050 0
M  V30 27 O 1.816874 1.230420 -0.279244 0
M  V30 28 O 2.010802 2.355692 1.966045 0
M  V30 29 C 4.453473 -1.890380 1.210351 0
M  V30 30 C 4.696591 -2.155685 2.567688 0
M  V30 31 C 5.805148 -2.909206 2.958319 0
M  V30 32 C 6.681614 -3.412096 1.999764 0
M  V30 33 C 6.450247 -3.164597 0.648927 0
M  V30 34 C 5.343297 -2.410546 0.255534 0
M  V30 35 C -2.145020 -0.534044 -0.371881 0
M  V30 36 C -2.936203 -1.638941 -0.017805 0
M  V30 37 C -3.370432 -2.499335 -1.003184 0
M  V30 38 N -3.087182 -2.340349 -2.308221 0
M  V30 39 C -2.322843 -1.298850 -2.665322 0
M  V30 40 C -2.026393 -1.163642 -4.013194 0
M  V30 41 C -1.237897 -0.119377 -4.503265 0
M  V30 42 C -0.725869 0.821295 -3.623680 0
M  V30 43 O 0.059849 1.889483 -3.953868 0
M  V30 44 C 0.377939 2.054372 -5.330094 0
M  V30 45 C -1.014583 0.702304 -2.260492 0
M  V30 46 C -1.815377 -0.349730 -1.745777 0
M  V30 47 H -7.621565 2.218831 1.068755 0
M  V30 48 H -6.343360 1.290574 2.021322 0
M  V30 49 H -6.285285 4.186099 1.001495 0
M  V30 50 H -4.583809 4.460572 2.698646 0
M  V30 51 H -3.782157 2.902226 4.071930 0
M  V30 52 H -4.645702 1.633235 3.270249 0
M  V30 53 H -1.450658 3.330482 3.575329 0
M  V30 54 H -0.693929 2.589615 2.193601 0
M  V30 55 H -2.251561 5.042024 2.288519 0
M  V30 56 H -1.361449 4.365094 0.923457 0
M  V30 57 H -3.763477 4.565395 0.316399 0
M  V30 58 H -2.379143 2.621299 -0.476742 0
M  V30 59 H -4.079518 2.185147 -0.368494 0
M  V30 60 H -3.759996 0.675888 1.305389 0
M  V30 61 H -0.860379 1.041703 0.409705 0
M  V30 62 H -1.539189 -0.035757 2.778768 0
M  V30 63 H 0.391038 -0.767406 0.040492 0
M  V30 64 H 2.010287 -2.751580 1.484500 0
M  V30 65 H 1.643400 -1.034133 -1.915053 0
M  V30 66 H 1.552136 -2.310704 -4.011246 0
M  V30 67 H 1.762176 -4.782776 -3.985616 0
M  V30 68 H 2.057131 -5.977887 -1.833102 0
M  V30 69 H 2.141138 -4.724248 0.285962 0
M  V30 70 H 3.480106 -0.704856 -0.240622 0
M  V30 71 H 2.470914 -0.106510 2.483390 0
M  V30 72 H 3.976437 3.184560 0.010198 0
M  V30 73 H 4.629743 1.543285 -0.256044 0
M  V30 74 H 4.759066 2.318335 1.363696 0
M  V30 75 H 4.024297 -1.780089 3.336056 0
M  V30 76 H 5.981935 -3.105445 4.012939 0
M  V30 77 H 7.542643 -4.000415 2.305916 0
M  V30 78 H 7.129520 -3.563354 -0.100233 0
M  V30 79 H 5.175513 -2.241876 -0.806844 0
M  V30 80 H -3.200582 -1.834088 1.017465 0
M  V30 81 H -3.976830 -3.367214 -0.761387 0
M  V30 82 H -2.422943 -1.900634 -4.708702 0
M  V30 83 H -1.049591 -0.079309 -5.570289 0
M  V30 84 H 1.004767 2.946394 -5.423718 0
M  V30 85 H 0.953075 1.202041 -5.706762 0
M  V30 86 H -0.525279 2.217572 -5.927271 0
M  V30 87 H -0.585979 1.454741 -1.603917 0
M  V30 END ATOM
M  V30 BEGIN BOND
M  V30 1 2 1 2
M  V30 2 1 2 3
M  V30 3 1 3 4
M  V30 4 1 4 5
M  V30 5 1 5 6
M  V30 6 1 6 7
M  V30 7 1 7 8
M  V30 8 1 8 9
M  V30 9 1 9 10
M  V30 10 1 10 11
M  V30 11 1 11 12
M  V30 12 1 12 13
M  V30 13 2 13 14
M  V30 14 1 13 15
M  V30 15 1 15 16
M  V30 16 1 16 17
M  V30 17 2 17 18
M  V30 18 1 18 19
M  V30 19 2 19 20
M  V30 20 1 20 21
M  V30 21 2 21 22
M  V30 22 1 16 23
M  V30 23 1 23 24
M  V30 24 1 24 25
M  V30 25 1 25 26
M  V30 26 2 25 27
M  V30 27 2 25 28
M  V30 28 1 23 29
M  V30 29 2 29 30
M  V30 30 1 30 31
M  V30 31 2 31 32
M  V30 32 1 32 33
M  V30 33 2 33 34
M  V30 34 1 11 35
M  V30 35 2 35 36
M  V30 36 1 36 37
M  V30 37 2 37 38
M  V30 38 1 38 39
M  V30 39 2 39 40
M  V30 40 1 40 41
M  V30 41 2 41 42
M  V30 42 1 42 43
M  V30 43 1 43 44
M  V30 44 1 42 45
M  V30 45 2 45 46
M  V30 46 1 8 3
M  V30 47 1 22 17
M  V30 48 1 34 29
M  V30 49 1 46 35
M  V30 50 1 10 5
M  V30 51 1 46 39
M  V30 52 1 1 47
M  V30 53 1 1 48
M  V30 54 1 2 49
M  V30 55 1 3 50 CFG=1
M  V30 56 1 4 51
M  V30 57 1 4 52
M  V30 58 1 6 53
M  V30 59 1 6 54
M  V30 60 1 7 55
M  V30 61 1 7 56
M  V30 62 1 8 57 CFG=3
M  V30 63 1 9 58
M  V30 64 1 9 59
M  V30 65 1 10 60 CFG=1
M  V30 66 1 11 61 CFG=3
M  V30 67 1 12 62
M  V30 68 1 15 63
M  V30 69 1 16 64 CFG=1
M  V30 70 1 18 65
M  V30 71 1 19 66
M  V30 72 1 20 67
M  V30 73 1 21 68
M  V30 74 1 22 69
M  V30 75 1 23 70 CFG=3
M  V30 76 1 24 71
M  V30 77 1 26 72
M  V30 78 1 26 73
M  V30 79 1 26 74
M  V30 80 1 30 75
M  V30 81 1 31 76
M  V30 82 1 32 77
M  V30 83 1 33 78
M  V30 84 1 34 79
M  V30 85 1 36 80
M  V30 86 1 37 81
M  V30 87 1 40 82
M  V30 88 1 41 83
M  V30 89 1 44 84
M  V30 90 1 44 85
M  V30 91 1 44 86
M  V30 92 1 45 87
M  V30 END BOND
M  V30 END CTAB
M  END
>  <catalyst_id>  (1) 
SENBCSVQICMXPF_KRBNTTMJSA_NONE

>  <source_smiles>  (1) 
C=C[C@H]1CN2CC[C@H]1C[C@H]2[C@@H](NC(=S)N[C@@H](c1ccccc1)[C@@H](NS(C)(=O)=O)c1ccccc1)c1ccnc2ccc(OC)cc12

>  <axial_configuration>  (1) 
none

>  <inchikey>  (1) 
SENBCSVQICMXPF-KRBNTTMJSA-N

>  <build_source>  (1) 
smiles

>  <rdkit_version>  (1) 
2025.09.6

>  <random_seed>  (1) 
42

>  <generated_at>  (1) 
2026-05-19T12:33:30

$$$$
