catalyst66
     RDKit          3D

  0  0  0  0  0  0  0  0  0  0999 V3000
M  V30 BEGIN CTAB
M  V30 COUNTS 69 74 0 0 0
M  V30 BEGIN ATOM
M  V30 1 C 2.925701 -1.150574 -5.199501 0
M  V30 2 C 2.159776 -0.601165 -4.247927 0
M  V30 3 C 0.899714 -1.237897 -3.710247 0 CFG=1
M  V30 4 C 0.959995 -1.430261 -2.172296 0
M  V30 5 N -0.296445 -1.000132 -1.500640 0
M  V30 6 C -1.429473 -1.699101 -2.156110 0
M  V30 7 C -1.584332 -1.278978 -3.627056 0
M  V30 8 C -0.374323 -0.423523 -4.045579 0 CFG=1
M  V30 9 C -0.407376 0.858778 -3.192876 0
M  V30 10 C -0.486480 0.482590 -1.692765 0 CFG=2
M  V30 11 C 0.491200 1.351646 -0.810931 0 CFG=2
M  V30 12 N 0.696455 0.699883 0.492719 0
M  V30 13 C 1.687783 0.951421 1.321842 0
M  V30 14 C 2.148632 0.492938 2.533872 0
M  V30 15 N 1.879174 -0.386996 3.476230 0
M  V30 16 C 1.053673 -1.530249 3.438564 0
M  V30 17 C 0.444420 -1.954328 4.628770 0
M  V30 18 C -0.432394 -3.051607 4.658812 0
M  V30 19 C -1.072854 -3.461600 5.962829 0
M  V30 20 F -1.900196 -2.500574 6.457377 0
M  V30 21 F -0.154157 -3.704975 6.938035 0
M  V30 22 F -1.825642 -4.591985 5.867007 0
M  V30 23 C -0.702610 -3.732830 3.464832 0
M  V30 24 C -0.102889 -3.335313 2.259667 0
M  V30 25 C -0.403761 -4.078797 0.980007 0
M  V30 26 F -0.568717 -5.417255 1.179561 0
M  V30 27 F 0.576614 -3.967104 0.042784 0
M  V30 28 F -1.551609 -3.649329 0.388826 0
M  V30 29 C 0.758813 -2.224272 2.260019 0
M  V30 30 C 3.223602 1.514047 2.566801 0
M  V30 31 O 4.099626 1.875550 3.312485 0
M  V30 32 C 2.798511 1.935202 1.214203 0
M  V30 33 O 3.257193 2.716262 0.416672 0
M  V30 34 C 0.003773 2.788895 -0.645939 0
M  V30 35 C 0.740683 3.788129 -1.300751 0
M  V30 36 C 0.328697 5.100734 -1.207136 0
M  V30 37 N -0.761294 5.491931 -0.524539 0
M  V30 38 C -1.473365 4.556898 0.121197 0
M  V30 39 C -2.585201 4.986049 0.833261 0
M  V30 40 C -3.394252 4.103262 1.547863 0
M  V30 41 C -3.086069 2.753275 1.556403 0
M  V30 42 C -1.974728 2.296947 0.846699 0
M  V30 43 C -1.143753 3.178520 0.107640 0
M  V30 44 H 3.825113 -0.650192 -5.546655 0
M  V30 45 H 2.679781 -2.104788 -5.655458 0
M  V30 46 H 2.465475 0.356007 -3.830356 0
M  V30 47 H 0.789388 -2.231386 -4.168771 0
M  V30 48 H 1.131752 -2.492068 -1.953805 0
M  V30 49 H 1.818159 -0.913176 -1.726800 0
M  V30 50 H -1.281544 -2.784246 -2.089591 0
M  V30 51 H -2.358294 -1.495382 -1.609333 0
M  V30 52 H -2.510976 -0.707723 -3.760386 0
M  V30 53 H -1.658323 -2.169463 -4.262210 0
M  V30 54 H -0.427029 -0.179549 -5.112423 0
M  V30 55 H 0.466288 1.480400 -3.413520 0
M  V30 56 H -1.289027 1.454415 -3.461558 0
M  V30 57 H -1.508664 0.698250 -1.356968 0
M  V30 58 H 1.465609 1.356260 -1.318267 0
M  V30 59 H 0.143723 -0.157900 0.558088 0
M  V30 60 H 2.358225 -0.304734 4.375319 0
M  V30 61 H 0.638449 -1.412380 5.554716 0
M  V30 62 H -1.382885 -4.586485 3.470363 0
M  V30 63 H 1.236514 -1.933721 1.325976 0
M  V30 64 H 1.638579 3.555690 -1.866117 0
M  V30 65 H 0.883016 5.897921 -1.694217 0
M  V30 66 H -2.827040 6.046861 0.834070 0
M  V30 67 H -4.254637 4.476572 2.096412 0
M  V30 68 H -3.701913 2.053695 2.115489 0
M  V30 69 H -1.761854 1.233015 0.891226 0
M  V30 END ATOM
M  V30 BEGIN BOND
M  V30 1 2 1 2
M  V30 2 1 2 3
M  V30 3 1 3 4
M  V30 4 1 4 5
M  V30 5 1 5 6
M  V30 6 1 6 7
M  V30 7 1 7 8
M  V30 8 1 8 9
M  V30 9 1 9 10
M  V30 10 1 10 11
M  V30 11 1 11 12
M  V30 12 1 12 13
M  V30 13 2 13 14
M  V30 14 1 14 15
M  V30 15 1 15 16
M  V30 16 2 16 17
M  V30 17 1 17 18
M  V30 18 1 18 19
M  V30 19 1 19 20
M  V30 20 1 19 21
M  V30 21 1 19 22
M  V30 22 2 18 23
M  V30 23 1 23 24
M  V30 24 1 24 25
M  V30 25 1 25 26
M  V30 26 1 25 27
M  V30 27 1 25 28
M  V30 28 2 24 29
M  V30 29 1 14 30
M  V30 30 2 30 31
M  V30 31 1 30 32
M  V30 32 2 32 33
M  V30 33 1 11 34
M  V30 34 2 34 35
M  V30 35 1 35 36
M  V30 36 2 36 37
M  V30 37 1 37 38
M  V30 38 2 38 39
M  V30 39 1 39 40
M  V30 40 2 40 41
M  V30 41 1 41 42
M  V30 42 2 42 43
M  V30 43 1 8 3
M  V30 44 1 32 13
M  V30 45 1 43 34
M  V30 46 1 10 5
M  V30 47 1 29 16
M  V30 48 1 43 38
M  V30 49 1 1 44
M  V30 50 1 1 45
M  V30 51 1 2 46
M  V30 52 1 3 47 CFG=3
M  V30 53 1 4 48
M  V30 54 1 4 49
M  V30 55 1 6 50
M  V30 56 1 6 51
M  V30 57 1 7 52
M  V30 58 1 7 53
M  V30 59 1 8 54 CFG=3
M  V30 60 1 9 55
M  V30 61 1 9 56
M  V30 62 1 10 57 CFG=1
M  V30 63 1 11 58 CFG=3
M  V30 64 1 12 59
M  V30 65 1 15 60
M  V30 66 1 17 61
M  V30 67 1 23 62
M  V30 68 1 29 63
M  V30 69 1 35 64
M  V30 70 1 36 65
M  V30 71 1 39 66
M  V30 72 1 40 67
M  V30 73 1 41 68
M  V30 74 1 42 69
M  V30 END BOND
M  V30 END CTAB
M  END
>  <catalyst_id>  (1) 
FWJUZWUOETZTNW_WAJMBDEPSA_NONE

>  <source_smiles>  (1) 
C=C[C@H]1CN2CC[C@H]1C[C@@H]2[C@H](Nc1c(Nc2cc(C(F)(F)F)cc(C(F)(F)F)c2)c(=O)c1=O)c1ccnc2ccccc12

>  <axial_configuration>  (1) 
none

>  <inchikey>  (1) 
FWJUZWUOETZTNW-WAJMBDEPSA-N

>  <build_source>  (1) 
smiles

>  <rdkit_version>  (1) 
2025.09.6

>  <random_seed>  (1) 
42

>  <generated_at>  (1) 
2026-05-19T12:33:29

$$$$
