catalyst252
     RDKit          3D

  0  0  0  0  0  0  0  0  0  0999 V3000
M  V30 BEGIN CTAB
M  V30 COUNTS 71 74 0 0 0
M  V30 BEGIN ATOM
M  V30 1 F -5.607159 3.692505 -3.495622 0
M  V30 2 C -4.395991 4.139929 -3.063413 0
M  V30 3 F -3.648552 4.342968 -4.181923 0
M  V30 4 F -4.621599 5.372968 -2.532007 0
M  V30 5 C -3.728548 3.192513 -2.095430 0
M  V30 6 C -3.918817 1.805838 -2.215018 0
M  V30 7 C -3.274935 0.906152 -1.356876 0
M  V30 8 N -3.539257 -0.462502 -1.556692 0
M  V30 9 C -2.925564 -1.599552 -1.111155 0
M  V30 10 S -3.775055 -3.030544 -1.279636 0
M  V30 11 N -1.665510 -1.479502 -0.616993 0
M  V30 12 C -0.747825 -2.560042 -0.201054 0 CFG=2
M  V30 13 C -1.034115 -3.032574 1.222518 0
M  V30 14 C -1.487696 -2.163541 2.227671 0
M  V30 15 C -1.702355 -2.625996 3.527501 0
M  V30 16 C -1.466033 -3.961997 3.841850 0
M  V30 17 C -1.017734 -4.838330 2.856812 0
M  V30 18 C -0.801984 -4.377696 1.556782 0
M  V30 19 C 0.758423 -2.086328 -0.332396 0 CFG=2
M  V30 20 N 0.912738 -0.670701 0.119072 0
M  V30 21 C 2.326257 -0.289863 0.249365 0
M  V30 22 C 2.479308 1.124779 0.848888 0
M  V30 23 C 1.995372 1.198783 2.308976 0
M  V30 24 C 2.233101 2.576827 2.923836 0
M  V30 25 C 3.690931 3.005519 2.808498 0
M  V30 26 C 4.173938 2.947986 1.364195 0
M  V30 27 C 3.950632 1.567192 0.753739 0
M  V30 28 C 1.237313 -2.302530 -1.767739 0
M  V30 29 C 0.947949 -1.392229 -2.797426 0
M  V30 30 C 1.375502 -1.633750 -4.104238 0
M  V30 31 C 2.094184 -2.789026 -4.401675 0
M  V30 32 C 2.387463 -3.703734 -3.393163 0
M  V30 33 C 1.961301 -3.464067 -2.085378 0
M  V30 34 C -2.467014 1.410234 -0.336300 0
M  V30 35 C -2.256935 2.792743 -0.192533 0
M  V30 36 C -1.357241 3.324365 0.897793 0
M  V30 37 F -0.119298 3.644204 0.433360 0
M  V30 38 F -1.845253 4.457321 1.474718 0
M  V30 39 F -1.163273 2.442555 1.917199 0
M  V30 40 C -2.879223 3.674416 -1.089394 0
M  V30 41 H -4.566642 1.430946 -3.007611 0
M  V30 42 H -4.362005 -0.677425 -2.112174 0
M  V30 43 H -1.160677 -0.646476 -0.889493 0
M  V30 44 H -0.916153 -3.406983 -0.878577 0
M  V30 45 H -1.691502 -1.119359 2.006795 0
M  V30 46 H -2.061806 -1.943557 4.293439 0
M  V30 47 H -1.639396 -4.321926 4.852534 0
M  V30 48 H -0.841799 -5.883238 3.099066 0
M  V30 49 H -0.458547 -5.080972 0.800650 0
M  V30 50 H 1.374062 -2.717616 0.323994 0
M  V30 51 H 0.484992 -0.616985 1.044081 0
M  V30 52 H 2.803866 -0.302262 -0.736720 0
M  V30 53 H 2.857106 -1.010069 0.884633 0
M  V30 54 H 1.878878 1.823135 0.249290 0
M  V30 55 H 2.516554 0.442392 2.909631 0
M  V30 56 H 0.926032 0.972359 2.374173 0
M  V30 57 H 1.935460 2.564508 3.978461 0
M  V30 58 H 1.595875 3.314940 2.422315 0
M  V30 59 H 4.314947 2.351305 3.429678 0
M  V30 60 H 3.808624 4.023210 3.197303 0
M  V30 61 H 5.239240 3.201327 1.321781 0
M  V30 62 H 3.642186 3.700832 0.769385 0
M  V30 63 H 4.267140 1.585679 -0.296104 0
M  V30 64 H 4.592030 0.838239 1.265695 0
M  V30 65 H 0.396479 -0.479227 -2.587043 0
M  V30 66 H 1.147695 -0.917984 -4.889778 0
M  V30 67 H 2.425724 -2.976072 -5.419599 0
M  V30 68 H 2.947408 -4.605919 -3.625624 0
M  V30 69 H 2.199111 -4.194450 -1.314961 0
M  V30 70 H -2.020582 0.747632 0.399800 0
M  V30 71 H -2.711745 4.748723 -0.991731 0
M  V30 END ATOM
M  V30 BEGIN BOND
M  V30 1 1 1 2
M  V30 2 1 2 3
M  V30 3 1 2 4
M  V30 4 1 2 5
M  V30 5 2 5 6
M  V30 6 1 6 7
M  V30 7 1 7 8
M  V30 8 1 8 9
M  V30 9 2 9 10
M  V30 10 1 9 11
M  V30 11 1 11 12
M  V30 12 1 12 13
M  V30 13 2 13 14
M  V30 14 1 14 15
M  V30 15 2 15 16
M  V30 16 1 16 17
M  V30 17 2 17 18
M  V30 18 1 12 19
M  V30 19 1 19 20
M  V30 20 1 20 21
M  V30 21 1 21 22
M  V30 22 1 22 23
M  V30 23 1 23 24
M  V30 24 1 24 25
M  V30 25 1 25 26
M  V30 26 1 26 27
M  V30 27 1 19 28
M  V30 28 2 28 29
M  V30 29 1 29 30
M  V30 30 2 30 31
M  V30 31 1 31 32
M  V30 32 2 32 33
M  V30 33 2 7 34
M  V30 34 1 34 35
M  V30 35 1 35 36
M  V30 36 1 36 37
M  V30 37 1 36 38
M  V30 38 1 36 39
M  V30 39 2 35 40
M  V30 40 1 40 5
M  V30 41 1 18 13
M  V30 42 1 27 22
M  V30 43 1 33 28
M  V30 44 1 6 41
M  V30 45 1 8 42
M  V30 46 1 11 43
M  V30 47 1 12 44 CFG=3
M  V30 48 1 14 45
M  V30 49 1 15 46
M  V30 50 1 16 47
M  V30 51 1 17 48
M  V30 52 1 18 49
M  V30 53 1 19 50 CFG=1
M  V30 54 1 20 51
M  V30 55 1 21 52
M  V30 56 1 21 53
M  V30 57 1 22 54
M  V30 58 1 23 55
M  V30 59 1 23 56
M  V30 60 1 24 57
M  V30 61 1 24 58
M  V30 62 1 25 59
M  V30 63 1 25 60
M  V30 64 1 26 61
M  V30 65 1 26 62
M  V30 66 1 27 63
M  V30 67 1 27 64
M  V30 68 1 29 65
M  V30 69 1 30 66
M  V30 70 1 31 67
M  V30 71 1 32 68
M  V30 72 1 33 69
M  V30 73 1 34 70
M  V30 74 1 40 71
M  V30 END BOND
M  V30 END CTAB
M  END
>  <catalyst_id>  (1) 
PHLMBQONYOMROV_KAYWLYCHSA_NONE

>  <source_smiles>  (1) 
FC(F)(F)c1cc(NC(=S)N[C@H](c2ccccc2)[C@H](NCC2CCCCC2)c2ccccc2)cc(C(F)(F)F)c1

>  <axial_configuration>  (1) 
none

>  <inchikey>  (1) 
PHLMBQONYOMROV-KAYWLYCHSA-N

>  <build_source>  (1) 
smiles

>  <rdkit_version>  (1) 
2025.09.6

>  <random_seed>  (1) 
42

>  <generated_at>  (1) 
2026-05-19T12:30:11

$$$$
