catalyst326
     RDKit          3D

  0  0  0  0  0  0  0  0  0  0999 V3000
M  V30 BEGIN CTAB
M  V30 COUNTS 55 57 0 0 0
M  V30 BEGIN ATOM
M  V30 1 F 6.441308 1.428816 0.981111 0
M  V30 2 C 5.873917 0.615956 0.047930 0
M  V30 3 F 6.167200 -0.656976 0.428894 0
M  V30 4 F 6.566094 0.831957 -1.104956 0
M  V30 5 C 4.388720 0.837596 -0.106669 0
M  V30 6 C 3.753432 0.555657 -1.327068 0
M  V30 7 C 2.371354 0.711841 -1.474030 0
M  V30 8 N 1.819530 0.427620 -2.740030 0
M  V30 9 C 0.524764 0.378357 -3.129665 0
M  V30 10 S 0.105349 0.905062 -4.656927 0
M  V30 11 N -0.437426 -0.168224 -2.346669 0
M  V30 12 C -0.254448 -1.361268 -1.492179 0 CFG=2
M  V30 13 C -0.033169 -2.613599 -2.355167 0
M  V30 14 C 0.132230 -3.862086 -1.494468 0
M  V30 15 C -1.043807 -4.051088 -0.543641 0
M  V30 16 C -1.290966 -2.810412 0.313270 0
M  V30 17 C -1.482919 -1.555687 -0.552545 0 CFG=1
M  V30 18 N -1.668906 -0.345029 0.265988 0
M  V30 19 C -2.971703 -0.290615 0.927613 0
M  V30 20 C -3.173332 1.052291 1.588575 0
M  V30 21 C -2.491235 1.366653 2.772931 0
M  V30 22 C -2.660592 2.611361 3.380452 0
M  V30 23 C -3.510669 3.555905 2.808907 0
M  V30 24 C -4.188702 3.258299 1.628040 0
M  V30 25 C -4.019336 2.013857 1.018028 0
M  V30 26 C 1.623386 1.196946 -0.399629 0
M  V30 27 C 2.231985 1.490830 0.831703 0
M  V30 28 C 1.401635 1.994214 1.989321 0
M  V30 29 F 0.379976 2.803299 1.601751 0
M  V30 30 F 0.847532 0.983918 2.712032 0
M  V30 31 F 2.132276 2.725974 2.879013 0
M  V30 32 C 3.614145 1.290076 0.972209 0
M  V30 33 H 4.350633 0.190897 -2.162318 0
M  V30 34 H 2.464406 0.532219 -3.517039 0
M  V30 35 H -1.336029 -0.143130 -2.816317 0
M  V30 36 H 0.640870 -1.223638 -0.879785 0
M  V30 37 H 0.857376 -2.490800 -2.983007 0
M  V30 38 H -0.880099 -2.748675 -3.040357 0
M  V30 39 H 1.060864 -3.785117 -0.915560 0
M  V30 40 H 0.230342 -4.743149 -2.138624 0
M  V30 41 H -1.947503 -4.278396 -1.122603 0
M  V30 42 H -0.856338 -4.914031 0.105374 0
M  V30 43 H -0.444000 -2.668112 0.997109 0
M  V30 44 H -2.174586 -2.993573 0.934652 0
M  V30 45 H -2.368875 -1.689799 -1.189286 0
M  V30 46 H -1.590032 0.469088 -0.347222 0
M  V30 47 H -3.056461 -1.066148 1.697242 0
M  V30 48 H -3.780212 -0.463930 0.206623 0
M  V30 49 H -1.811523 0.641962 3.217051 0
M  V30 50 H -2.121391 2.845524 4.294341 0
M  V30 51 H -3.638740 4.526560 3.280254 0
M  V30 52 H -4.846450 3.998119 1.179593 0
M  V30 53 H -4.550892 1.801113 0.093779 0
M  V30 54 H 0.556893 1.379058 -0.508299 0
M  V30 55 H 4.094121 1.502458 1.929338 0
M  V30 END ATOM
M  V30 BEGIN BOND
M  V30 1 1 1 2
M  V30 2 1 2 3
M  V30 3 1 2 4
M  V30 4 1 2 5
M  V30 5 2 5 6
M  V30 6 1 6 7
M  V30 7 1 7 8
M  V30 8 1 8 9
M  V30 9 2 9 10
M  V30 10 1 9 11
M  V30 11 1 11 12
M  V30 12 1 12 13
M  V30 13 1 13 14
M  V30 14 1 14 15
M  V30 15 1 15 16
M  V30 16 1 16 17
M  V30 17 1 17 18
M  V30 18 1 18 19
M  V30 19 1 19 20
M  V30 20 2 20 21
M  V30 21 1 21 22
M  V30 22 2 22 23
M  V30 23 1 23 24
M  V30 24 2 24 25
M  V30 25 2 7 26
M  V30 26 1 26 27
M  V30 27 1 27 28
M  V30 28 1 28 29
M  V30 29 1 28 30
M  V30 30 1 28 31
M  V30 31 2 27 32
M  V30 32 1 32 5
M  V30 33 1 17 12
M  V30 34 1 25 20
M  V30 35 1 6 33
M  V30 36 1 8 34
M  V30 37 1 11 35
M  V30 38 1 12 36 CFG=1
M  V30 39 1 13 37
M  V30 40 1 13 38
M  V30 41 1 14 39
M  V30 42 1 14 40
M  V30 43 1 15 41
M  V30 44 1 15 42
M  V30 45 1 16 43
M  V30 46 1 16 44
M  V30 47 1 17 45 CFG=3
M  V30 48 1 18 46
M  V30 49 1 19 47
M  V30 50 1 19 48
M  V30 51 1 21 49
M  V30 52 1 22 50
M  V30 53 1 23 51
M  V30 54 1 24 52
M  V30 55 1 25 53
M  V30 56 1 26 54
M  V30 57 1 32 55
M  V30 END BOND
M  V30 END CTAB
M  END
>  <catalyst_id>  (1) 
SIGDBBPOVSSVNU_RTBURBONSA_NONE

>  <source_smiles>  (1) 
FC(F)(F)c1cc(NC(=S)N[C@@H]2CCCC[C@H]2NCc2ccccc2)cc(C(F)(F)F)c1

>  <axial_configuration>  (1) 
none

>  <inchikey>  (1) 
SIGDBBPOVSSVNU-RTBURBONSA-N

>  <build_source>  (1) 
smiles

>  <rdkit_version>  (1) 
2025.09.6

>  <random_seed>  (1) 
42

>  <generated_at>  (1) 
2026-05-19T12:30:08

$$$$
