catalyst75
     RDKit          3D

  0  0  0  0  0  0  0  0  0  0999 V3000
M  V30 BEGIN CTAB
M  V30 COUNTS 57 61 0 0 0
M  V30 BEGIN ATOM
M  V30 1 C -5.467811 -2.620090 -1.286479 0
M  V30 2 C -4.239323 -2.203237 -0.953147 0
M  V30 3 C -3.936680 -1.359667 0.263636 0 CFG=1
M  V30 4 C -2.876751 -2.015072 1.195778 0
M  V30 5 N -1.659975 -1.161589 1.341930 0
M  V30 6 C -2.089434 0.104876 1.987385 0
M  V30 7 C -3.213066 0.810168 1.213324 0
M  V30 8 C -3.448110 0.063857 -0.109857 0 CFG=1
M  V30 9 C -2.077691 0.021910 -0.818589 0
M  V30 10 C -1.129358 -0.915399 -0.039783 0 CFG=1
M  V30 11 C 0.413964 -0.609783 -0.156991 0 CFG=1
M  V30 12 N 0.884822 -0.762186 -1.544269 0
M  V30 13 C 2.160934 -1.015701 -1.991307 0
M  V30 14 S 2.425447 -1.093999 -3.642522 0
M  V30 15 C 3.240830 -1.212656 -1.007535 0
M  V30 16 C 3.408279 -2.465467 -0.409210 0
M  V30 17 C 4.417945 -2.645048 0.536117 0
M  V30 18 C 5.252788 -1.578740 0.877286 0
M  V30 19 C 5.085349 -0.331300 0.272525 0
M  V30 20 C 4.080600 -0.145201 -0.676380 0
M  V30 21 C 0.938680 0.650612 0.527355 0
M  V30 22 C 1.414266 0.475929 1.841092 0
M  V30 23 C 1.913364 1.556654 2.535005 0
M  V30 24 N 1.977743 2.797797 2.026766 0
M  V30 25 C 1.546770 2.989600 0.772174 0
M  V30 26 C 1.645393 4.280041 0.270870 0
M  V30 27 C 1.246704 4.605317 -1.024100 0
M  V30 28 C 0.736256 3.615076 -1.844640 0
M  V30 29 C 0.623571 2.310341 -1.361354 0
M  V30 30 C 1.015797 1.956625 -0.044160 0
M  V30 31 H -5.626672 -3.228545 -2.172035 0
M  V30 32 H -6.340828 -2.367030 -0.692630 0
M  V30 33 H -3.405704 -2.493246 -1.589413 0
M  V30 34 H -4.862073 -1.252069 0.847770 0
M  V30 35 H -3.314897 -2.184955 2.188470 0
M  V30 36 H -2.583767 -3.011839 0.840996 0
M  V30 37 H -2.427404 -0.107872 3.009774 0
M  V30 38 H -1.249206 0.790548 2.110986 0
M  V30 39 H -2.934787 1.852936 1.018879 0
M  V30 40 H -4.133040 0.827717 1.809763 0
M  V30 41 H -4.186428 0.594252 -0.721395 0
M  V30 42 H -1.689406 1.040536 -0.871626 0
M  V30 43 H -2.191834 -0.332549 -1.849450 0
M  V30 44 H -1.200406 -1.888579 -0.552566 0
M  V30 45 H 0.890570 -1.454851 0.359301 0
M  V30 46 H 0.205596 -0.642026 -2.285960 0
M  V30 47 H 2.759089 -3.294720 -0.676567 0
M  V30 48 H 4.557193 -3.615421 1.005901 0
M  V30 49 H 6.039503 -1.720369 1.614587 0
M  V30 50 H 5.735739 0.497284 0.541875 0
M  V30 51 H 3.946724 0.828646 -1.140641 0
M  V30 52 H 1.388736 -0.496718 2.325189 0
M  V30 53 H 2.283133 1.448845 3.550282 0
M  V30 54 H 2.053080 5.059422 0.911364 0
M  V30 55 H 1.342933 5.625835 -1.384036 0
M  V30 56 H 0.428768 3.849204 -2.860686 0
M  V30 57 H 0.224087 1.571895 -2.046415 0
M  V30 END ATOM
M  V30 BEGIN BOND
M  V30 1 2 1 2
M  V30 2 1 2 3
M  V30 3 1 3 4
M  V30 4 1 4 5
M  V30 5 1 5 6
M  V30 6 1 6 7
M  V30 7 1 7 8
M  V30 8 1 8 9
M  V30 9 1 9 10
M  V30 10 1 10 11
M  V30 11 1 11 12
M  V30 12 1 12 13
M  V30 13 2 13 14
M  V30 14 1 13 15
M  V30 15 2 15 16
M  V30 16 1 16 17
M  V30 17 2 17 18
M  V30 18 1 18 19
M  V30 19 2 19 20
M  V30 20 1 11 21
M  V30 21 2 21 22
M  V30 22 1 22 23
M  V30 23 2 23 24
M  V30 24 1 24 25
M  V30 25 2 25 26
M  V30 26 1 26 27
M  V30 27 2 27 28
M  V30 28 1 28 29
M  V30 29 2 29 30
M  V30 30 1 8 3
M  V30 31 1 20 15
M  V30 32 1 30 21
M  V30 33 1 10 5
M  V30 34 1 30 25
M  V30 35 1 1 31
M  V30 36 1 1 32
M  V30 37 1 2 33
M  V30 38 1 3 34 CFG=1
M  V30 39 1 4 35
M  V30 40 1 4 36
M  V30 41 1 6 37
M  V30 42 1 6 38
M  V30 43 1 7 39
M  V30 44 1 7 40
M  V30 45 1 8 41 CFG=3
M  V30 46 1 9 42
M  V30 47 1 9 43
M  V30 48 1 10 44 CFG=3
M  V30 49 1 11 45 CFG=1
M  V30 50 1 12 46
M  V30 51 1 16 47
M  V30 52 1 17 48
M  V30 53 1 18 49
M  V30 54 1 19 50
M  V30 55 1 20 51
M  V30 56 1 22 52
M  V30 57 1 23 53
M  V30 58 1 26 54
M  V30 59 1 27 55
M  V30 60 1 28 56
M  V30 61 1 29 57
M  V30 END BOND
M  V30 END CTAB
M  END
>  <catalyst_id>  (1) 
GAJYGYZBTYZWFD_IYNDAXALSA_NONE

>  <source_smiles>  (1) 
C=C[C@H]1CN2CC[C@H]1C[C@H]2[C@@H](NC(=S)c1ccccc1)c1ccnc2ccccc12

>  <axial_configuration>  (1) 
none

>  <inchikey>  (1) 
GAJYGYZBTYZWFD-IYNDAXALSA-N

>  <build_source>  (1) 
smiles

>  <rdkit_version>  (1) 
2025.09.6

>  <random_seed>  (1) 
42

>  <generated_at>  (1) 
2026-05-19T12:34:44

$$$$
