catalyst194
     RDKit          3D

  0  0  0  0  0  0  0  0  0  0999 V3000
M  V30 BEGIN CTAB
M  V30 COUNTS 39 41 0 0 0
M  V30 BEGIN ATOM
M  V30 1 N 1.145074 -0.986308 -2.384692 0
M  V30 2 C 0.495538 -0.923776 -1.056115 0 CFG=1
M  V30 3 C 1.495847 -1.344340 0.015428 0
M  V30 4 C 1.146693 -2.315660 0.966693 0
M  V30 5 C 2.047204 -2.688161 1.966455 0
M  V30 6 C 3.307286 -2.096639 2.027839 0
M  V30 7 C 3.668762 -1.131111 1.090877 0
M  V30 8 C 2.768914 -0.755703 0.092226 0
M  V30 9 C -0.181723 0.474844 -0.710903 0 CFG=2
M  V30 10 C -1.184691 0.259487 0.436407 0
M  V30 11 C -2.435342 -0.341126 0.212154 0
M  V30 12 C -3.325185 -0.547392 1.267194 0
M  V30 13 C -2.976339 -0.160951 2.559466 0
M  V30 14 C -1.738593 0.432705 2.798471 0
M  V30 15 C -0.847507 0.642583 1.744734 0
M  V30 16 N -0.848354 1.109752 -1.891537 0
M  V30 17 C 0.142075 1.855360 -2.732821 0
M  V30 18 C -0.908045 2.970988 -2.861088 0
M  V30 19 C -1.416871 2.443609 -1.511852 0
M  V30 20 H 0.420035 -0.778144 -3.072226 0
M  V30 21 H 1.429834 -1.950220 -2.550733 0
M  V30 22 H -0.296035 -1.684720 -1.099721 0
M  V30 23 H 0.162725 -2.779676 0.943183 0
M  V30 24 H 1.762601 -3.438514 2.699328 0
M  V30 25 H 4.007746 -2.388741 2.805523 0
M  V30 26 H 4.652334 -0.671198 1.134556 0
M  V30 27 H 3.064946 -0.004739 -0.637919 0
M  V30 28 H 0.599748 1.154690 -0.340647 0
M  V30 29 H -2.723262 -0.642292 -0.793235 0
M  V30 30 H -4.291477 -1.007722 1.079088 0
M  V30 31 H -3.669292 -0.322332 3.380861 0
M  V30 32 H -1.464065 0.730094 3.807147 0
M  V30 33 H 0.119256 1.096276 1.953390 0
M  V30 34 H 0.401267 1.380685 -3.683367 0
M  V30 35 H 1.063512 2.175949 -2.230598 0
M  V30 36 H -0.528925 3.995354 -2.870360 0
M  V30 37 H -1.610847 2.834356 -3.691360 0
M  V30 38 H -0.951059 2.941067 -0.651062 0
M  V30 39 H -2.503784 2.461663 -1.389480 0
M  V30 END ATOM
M  V30 BEGIN BOND
M  V30 1 1 1 2
M  V30 2 1 2 3
M  V30 3 2 3 4
M  V30 4 1 4 5
M  V30 5 2 5 6
M  V30 6 1 6 7
M  V30 7 2 7 8
M  V30 8 1 2 9
M  V30 9 1 9 10
M  V30 10 2 10 11
M  V30 11 1 11 12
M  V30 12 2 12 13
M  V30 13 1 13 14
M  V30 14 2 14 15
M  V30 15 1 9 16
M  V30 16 1 16 17
M  V30 17 1 17 18
M  V30 18 1 18 19
M  V30 19 1 8 3
M  V30 20 1 15 10
M  V30 21 1 19 16
M  V30 22 1 1 20
M  V30 23 1 1 21
M  V30 24 1 2 22 CFG=3
M  V30 25 1 4 23
M  V30 26 1 5 24
M  V30 27 1 6 25
M  V30 28 1 7 26
M  V30 29 1 8 27
M  V30 30 1 9 28 CFG=1
M  V30 31 1 11 29
M  V30 32 1 12 30
M  V30 33 1 13 31
M  V30 34 1 14 32
M  V30 35 1 15 33
M  V30 36 1 17 34
M  V30 37 1 17 35
M  V30 38 1 18 36
M  V30 39 1 18 37
M  V30 40 1 19 38
M  V30 41 1 19 39
M  V30 END BOND
M  V30 END CTAB
M  END
>  <catalyst_id>  (1) 
MAEIMAOPTYRGRZ_IRXDYDNUSA_NONE

>  <source_smiles>  (1) 
N[C@@H](c1ccccc1)[C@H](c1ccccc1)N1CCC1

>  <axial_configuration>  (1) 
none

>  <inchikey>  (1) 
MAEIMAOPTYRGRZ-IRXDYDNUSA-N

>  <build_source>  (1) 
smiles

>  <rdkit_version>  (1) 
2025.09.6

>  <random_seed>  (1) 
42

>  <generated_at>  (1) 
2026-05-19T12:37:16

$$$$
