catalyst186
     RDKit          3D

  0  0  0  0  0  0  0  0  0  0999 V3000
M  V30 BEGIN CTAB
M  V30 COUNTS 105 107 0 0 0
M  V30 BEGIN ATOM
M  V30 1 C -1.305889 -6.502127 -0.613155 0
M  V30 2 C -0.550334 -5.432687 0.159364 0
M  V30 3 C 0.787441 -5.039252 -0.476623 0
M  V30 4 C 0.673407 -4.465189 -1.887733 0
M  V30 5 N -0.200530 -3.283303 -1.962506 0 CHG=1
M  V30 6 C -0.110620 -2.140054 -1.246904 0
M  V30 7 N -1.234140 -1.425451 -1.005440 0
M  V30 8 C -2.620617 -1.857420 -1.272890 0
M  V30 9 C -3.629858 -1.189365 -0.299696 0 CFG=2
M  V30 10 C -5.054639 -1.751286 -0.510233 0
M  V30 11 C -5.160840 -3.238194 -0.276291 0
M  V30 12 C -4.947740 -3.776998 1.000464 0
M  V30 13 C -5.022853 -5.154879 1.207775 0
M  V30 14 C -5.318435 -6.006049 0.145445 0
M  V30 15 C -5.544261 -5.480842 -1.124828 0
M  V30 16 C -5.468968 -4.103296 -1.335994 0
M  V30 17 N -3.642843 0.287521 -0.470868 0
M  V30 18 C -2.878244 1.233136 0.200148 0
M  V30 19 S -1.555907 0.858367 1.156084 0
M  V30 20 N -3.318754 2.506208 -0.128183 0
M  V30 21 C -3.146047 3.726727 0.562511 0
M  V30 22 C -2.973588 3.810294 1.945608 0
M  V30 23 C -2.848307 5.055587 2.585844 0
M  V30 24 C -2.680716 5.136014 4.087094 0
M  V30 25 F -2.200596 3.987752 4.638386 0
M  V30 26 F -3.861274 5.388018 4.715642 0
M  V30 27 F -1.829653 6.126049 4.470742 0
M  V30 28 C -2.918158 6.227897 1.817891 0
M  V30 29 C -3.117940 6.166365 0.432062 0
M  V30 30 C -3.163603 7.423993 -0.403970 0
M  V30 31 F -1.969732 7.679657 -1.004662 0
M  V30 32 F -3.482069 8.537749 0.307226 0
M  V30 33 F -4.078183 7.343863 -1.410527 0
M  V30 34 C -3.239620 4.907897 -0.181981 0
M  V30 35 N 1.043681 -1.637536 -0.760300 0
M  V30 36 C 2.423357 -1.958781 -1.196583 0
M  V30 37 C 3.358730 -0.770470 -0.874868 0 CFG=2
M  V30 38 C 4.836841 -1.040265 -1.220325 0
M  V30 39 C 5.427543 -2.256841 -0.548798 0
M  V30 40 C 5.549388 -3.466714 -1.248360 0
M  V30 41 C 6.069945 -4.598413 -0.618863 0
M  V30 42 C 6.477342 -4.531902 0.711626 0
M  V30 43 C 6.373511 -3.332210 1.411882 0
M  V30 44 C 5.855184 -2.198692 0.784838 0
M  V30 45 N 3.164150 -0.378434 0.530866 0
M  V30 46 C 3.148242 0.860702 1.110126 0
M  V30 47 S 2.915114 0.873750 2.759706 0
M  V30 48 N 3.333786 1.913348 0.252271 0
M  V30 49 C 3.096330 3.296954 0.425083 0
M  V30 50 C 3.784921 4.169939 -0.427784 0
M  V30 51 C 3.604466 5.561912 -0.352566 0
M  V30 52 C 4.389449 6.477392 -1.262942 0
M  V30 53 F 4.531053 5.961306 -2.516134 0
M  V30 54 F 3.813532 7.698618 -1.424104 0
M  V30 55 F 5.648922 6.703552 -0.805095 0
M  V30 56 C 2.715830 6.077918 0.599417 0
M  V30 57 C 1.992419 5.220554 1.442383 0
M  V30 58 C 1.035205 5.793798 2.461273 0
M  V30 59 F 0.208764 4.861990 3.010993 0
M  V30 60 F 0.214817 6.739390 1.922771 0
M  V30 61 F 1.676527 6.394980 3.497054 0
M  V30 62 C 2.185179 3.830982 1.337423 0
M  V30 63 Cl 0.000000 0.000000 0.000000 0 CHG=-1
M  V30 64 H -1.661997 -6.123921 -1.575895 0
M  V30 65 H -2.180968 -6.828944 -0.042885 0
M  V30 66 H -0.674538 -7.377501 -0.794250 0
M  V30 67 H -0.352154 -5.808279 1.170496 0
M  V30 68 H -1.188820 -4.549948 0.275844 0
M  V30 69 H 1.268240 -4.312915 0.186098 0
M  V30 70 H 1.444120 -5.917032 -0.507077 0
M  V30 71 H 0.242603 -5.217320 -2.557874 0
M  V30 72 H 1.649785 -4.224529 -2.314593 0
M  V30 73 H -1.034509 -3.387049 -2.524342 0
M  V30 74 H -1.128238 -0.578475 -0.451729 0
M  V30 75 H -2.659107 -2.943641 -1.156658 0
M  V30 76 H -2.854811 -1.587310 -2.307914 0
M  V30 77 H -3.312666 -1.399716 0.727913 0
M  V30 78 H -5.398952 -1.504244 -1.523375 0
M  V30 79 H -5.754837 -1.246194 0.168669 0
M  V30 80 H -4.736773 -3.131280 1.850855 0
M  V30 81 H -4.866724 -5.565514 2.203109 0
M  V30 82 H -5.390756 -7.078472 0.312274 0
M  V30 83 H -5.796501 -6.146274 -1.947376 0
M  V30 84 H -5.668231 -3.716041 -2.332987 0
M  V30 85 H -4.517879 0.662235 -0.823164 0
M  V30 86 H -3.670279 2.600462 -1.073835 0
M  V30 87 H -2.971534 2.916095 2.564708 0
M  V30 88 H -2.815502 7.198365 2.308450 0
M  V30 89 H -3.391715 4.867985 -1.260034 0
M  V30 90 H 0.970904 -0.863007 -0.103952 0
M  V30 91 H 2.736747 -2.848917 -0.648333 0
M  V30 92 H 2.426731 -2.138152 -2.275758 0
M  V30 93 H 3.022461 0.073263 -1.489611 0
M  V30 94 H 4.932232 -1.150193 -2.308479 0
M  V30 95 H 5.447150 -0.166526 -0.957109 0
M  V30 96 H 5.255421 -3.539157 -2.293028 0
M  V30 97 H 6.173204 -5.531334 -1.168263 0
M  V30 98 H 6.892974 -5.410686 1.199427 0
M  V30 99 H 6.709653 -3.276880 2.445172 0
M  V30 100 H 5.802837 -1.268145 1.347579 0
M  V30 101 H 3.191390 -1.127401 1.221504 0
M  V30 102 H 3.945583 1.699317 -0.523121 0
M  V30 103 H 4.493116 3.779569 -1.158201 0
M  V30 104 H 2.577374 7.157898 0.683326 0
M  V30 105 H 1.584850 3.186276 1.973722 0
M  V30 END ATOM
M  V30 BEGIN BOND
M  V30 1 1 1 2
M  V30 2 1 2 3
M  V30 3 1 3 4
M  V30 4 1 4 5
M  V30 5 2 5 6
M  V30 6 1 6 7
M  V30 7 1 7 8
M  V30 8 1 8 9
M  V30 9 1 9 10
M  V30 10 1 10 11
M  V30 11 2 11 12
M  V30 12 1 12 13
M  V30 13 2 13 14
M  V30 14 1 14 15
M  V30 15 2 15 16
M  V30 16 1 9 17
M  V30 17 1 17 18
M  V30 18 2 18 19
M  V30 19 1 18 20
M  V30 20 1 20 21
M  V30 21 2 21 22
M  V30 22 1 22 23
M  V30 23 1 23 24
M  V30 24 1 24 25
M  V30 25 1 24 26
M  V30 26 1 24 27
M  V30 27 2 23 28
M  V30 28 1 28 29
M  V30 29 1 29 30
M  V30 30 1 30 31
M  V30 31 1 30 32
M  V30 32 1 30 33
M  V30 33 2 29 34
M  V30 34 1 6 35
M  V30 35 1 35 36
M  V30 36 1 36 37
M  V30 37 1 37 38
M  V30 38 1 38 39
M  V30 39 2 39 40
M  V30 40 1 40 41
M  V30 41 2 41 42
M  V30 42 1 42 43
M  V30 43 2 43 44
M  V30 44 1 37 45
M  V30 45 1 45 46
M  V30 46 2 46 47
M  V30 47 1 46 48
M  V30 48 1 48 49
M  V30 49 2 49 50
M  V30 50 1 50 51
M  V30 51 1 51 52
M  V30 52 1 52 53
M  V30 53 1 52 54
M  V30 54 1 52 55
M  V30 55 2 51 56
M  V30 56 1 56 57
M  V30 57 1 57 58
M  V30 58 1 58 59
M  V30 59 1 58 60
M  V30 60 1 58 61
M  V30 61 2 57 62
M  V30 62 1 16 11
M  V30 63 1 34 21
M  V30 64 1 44 39
M  V30 65 1 62 49
M  V30 66 1 1 64
M  V30 67 1 1 65
M  V30 68 1 1 66
M  V30 69 1 2 67
M  V30 70 1 2 68
M  V30 71 1 3 69
M  V30 72 1 3 70
M  V30 73 1 4 71
M  V30 74 1 4 72
M  V30 75 1 5 73
M  V30 76 1 7 74
M  V30 77 1 8 75
M  V30 78 1 8 76
M  V30 79 1 9 77 CFG=1
M  V30 80 1 10 78
M  V30 81 1 10 79
M  V30 82 1 12 80
M  V30 83 1 13 81
M  V30 84 1 14 82
M  V30 85 1 15 83
M  V30 86 1 16 84
M  V30 87 1 17 85
M  V30 88 1 20 86
M  V30 89 1 22 87
M  V30 90 1 28 88
M  V30 91 1 34 89
M  V30 92 1 35 90
M  V30 93 1 36 91
M  V30 94 1 36 92
M  V30 95 1 37 93 CFG=3
M  V30 96 1 38 94
M  V30 97 1 38 95
M  V30 98 1 40 96
M  V30 99 1 41 97
M  V30 100 1 42 98
M  V30 101 1 43 99
M  V30 102 1 44 100
M  V30 103 1 45 101
M  V30 104 1 48 102
M  V30 105 1 50 103
M  V30 106 1 56 104
M  V30 107 1 62 105
M  V30 END BOND
M  V30 END CTAB
M  END
>  <catalyst_id>  (1) 
LVYNXIRONSTLJF_GFLYYBHISA_NONE

>  <source_smiles>  (1) 
CCCC[NH+]=C(NC[C@H](Cc1ccccc1)NC(=S)Nc1cc(C(F)(F)F)cc(C(F)(F)F)c1)NC[C@H](Cc1ccccc1)NC(=S)Nc1cc(C(F)(F)F)cc(C(F)(F)F)c1.[Cl-]

>  <axial_configuration>  (1) 
none

>  <inchikey>  (1) 
LVYNXIRONSTLJF-GFLYYBHISA-N

>  <build_source>  (1) 
smiles

>  <rdkit_version>  (1) 
2025.09.6

>  <random_seed>  (1) 
42

>  <generated_at>  (1) 
2026-05-19T12:31:54

$$$$
