catalyst292
     RDKit          3D

  0  0  0  0  0  0  0  0  0  0999 V3000
M  V30 BEGIN CTAB
M  V30 COUNTS 47 50 0 0 0
M  V30 BEGIN ATOM
M  V30 1 C 5.283685 -0.596867 -0.588885 0
M  V30 2 C 3.956154 -0.298420 -1.269710 0
M  V30 3 C 3.104728 0.745519 -0.524005 0 CFG=1
M  V30 4 C 1.790865 1.041862 -1.293779 0
M  V30 5 N 0.591307 0.762817 -0.467572 0
M  V30 6 C 0.614882 1.665103 0.703396 0
M  V30 7 C 1.910448 1.518511 1.513525 0
M  V30 8 C 2.742345 0.361264 0.932445 0 CFG=1
M  V30 9 C 1.833081 -0.879548 0.949132 0
M  V30 10 C 0.653095 -0.667196 -0.034435 0 CFG=1
M  V30 11 C -0.684566 -1.241034 0.536720 0 CFG=2
M  V30 12 O -0.489684 -2.619674 0.900686 0
M  V30 13 C -1.849279 -1.173784 -0.441867 0
M  V30 14 C -1.790109 -1.977329 -1.591577 0
M  V30 15 C -2.831084 -1.937382 -2.494846 0
M  V30 16 N -3.922984 -1.167191 -2.340346 0
M  V30 17 C -3.996593 -0.387690 -1.251725 0
M  V30 18 C -5.129225 0.404623 -1.114681 0
M  V30 19 C -5.316187 1.250558 -0.021174 0
M  V30 20 C -4.340889 1.298792 0.957172 0
M  V30 21 O -4.465348 2.103540 2.049710 0
M  V30 22 C -3.194135 0.518417 0.852464 0
M  V30 23 C -2.989880 -0.343172 -0.253644 0
M  V30 24 H 5.850755 0.322287 -0.411507 0
M  V30 25 H 5.138077 -1.106501 0.367926 0
M  V30 26 H 5.890619 -1.252106 -1.222073 0
M  V30 27 H 4.166974 0.078809 -2.278501 0
M  V30 28 H 3.402119 -1.234481 -1.401694 0
M  V30 29 H 3.687966 1.676753 -0.490196 0
M  V30 30 H 1.777438 2.093983 -1.607454 0
M  V30 31 H 1.731568 0.465595 -2.225744 0
M  V30 32 H 0.503389 2.704280 0.369024 0
M  V30 33 H -0.250118 1.479458 1.348099 0
M  V30 34 H 2.485771 2.451434 1.479645 0
M  V30 35 H 1.672059 1.323646 2.565954 0
M  V30 36 H 3.634038 0.203034 1.546616 0
M  V30 37 H 2.399169 -1.773764 0.664134 0
M  V30 38 H 1.472188 -1.046480 1.971808 0
M  V30 39 H 0.881907 -1.271045 -0.924822 0
M  V30 40 H -0.920010 -0.737437 1.475766 0
M  V30 41 H -1.375974 -3.000695 1.030948 0
M  V30 42 H -0.940994 -2.627575 -1.779827 0
M  V30 43 H -2.814959 -2.544391 -3.395303 0
M  V30 44 H -5.891855 0.360343 -1.889473 0
M  V30 45 H -6.217875 1.850475 0.039926 0
M  V30 46 H -5.297718 2.599855 1.978081 0
M  V30 47 H -2.465160 0.602800 1.650555 0
M  V30 END ATOM
M  V30 BEGIN BOND
M  V30 1 1 1 2
M  V30 2 1 2 3
M  V30 3 1 3 4
M  V30 4 1 4 5
M  V30 5 1 5 6
M  V30 6 1 6 7
M  V30 7 1 7 8
M  V30 8 1 8 9
M  V30 9 1 9 10
M  V30 10 1 10 11
M  V30 11 1 11 12
M  V30 12 1 11 13
M  V30 13 2 13 14
M  V30 14 1 14 15
M  V30 15 2 15 16
M  V30 16 1 16 17
M  V30 17 2 17 18
M  V30 18 1 18 19
M  V30 19 2 19 20
M  V30 20 1 20 21
M  V30 21 1 20 22
M  V30 22 2 22 23
M  V30 23 1 8 3
M  V30 24 1 23 13
M  V30 25 1 10 5
M  V30 26 1 23 17
M  V30 27 1 1 24
M  V30 28 1 1 25
M  V30 29 1 1 26
M  V30 30 1 2 27
M  V30 31 1 2 28
M  V30 32 1 3 29 CFG=1
M  V30 33 1 4 30
M  V30 34 1 4 31
M  V30 35 1 6 32
M  V30 36 1 6 33
M  V30 37 1 7 34
M  V30 38 1 7 35
M  V30 39 1 8 36 CFG=1
M  V30 40 1 9 37
M  V30 41 1 9 38
M  V30 42 1 10 39 CFG=3
M  V30 43 1 11 40 CFG=1
M  V30 44 1 12 41
M  V30 45 1 14 42
M  V30 46 1 15 43
M  V30 47 1 18 44
M  V30 48 1 19 45
M  V30 49 1 21 46
M  V30 50 1 22 47
M  V30 END BOND
M  V30 END CTAB
M  END
>  <catalyst_id>  (1) 
RASAUPYEBCYZRS_BIPCEHGGSA_NONE

>  <source_smiles>  (1) 
CC[C@H]1CN2CC[C@H]1C[C@H]2[C@H](O)c1ccnc2ccc(O)cc12

>  <axial_configuration>  (1) 
none

>  <inchikey>  (1) 
RASAUPYEBCYZRS-BIPCEHGGSA-N

>  <build_source>  (1) 
smiles

>  <rdkit_version>  (1) 
2025.09.6

>  <random_seed>  (1) 
42

>  <generated_at>  (1) 
2026-05-19T12:39:48

$$$$
