catalyst162
     RDKit          3D

  0  0  0  0  0  0  0  0  0  0999 V3000
M  V30 BEGIN CTAB
M  V30 COUNTS 47 47 0 0 0
M  V30 BEGIN ATOM
M  V30 1 C -3.676662 2.454298 -1.075363 0
M  V30 2 C -2.266092 1.953012 -0.747197 0
M  V30 3 C -1.279004 3.117589 -0.918750 0
M  V30 4 C -2.169249 1.344127 0.681463 0 CFG=1
M  V30 5 C -3.217108 0.219286 0.961264 0
M  V30 6 N -3.335400 -0.852802 -0.056766 0
M  V30 7 C -4.592344 -1.582582 0.148139 0
M  V30 8 C -2.218626 -1.797088 0.005082 0
M  V30 9 N -0.792188 0.887735 0.948199 0
M  V30 10 C -0.174537 0.765706 2.156522 0
M  V30 11 S -0.790200 1.222288 3.637866 0
M  V30 12 N 1.080243 0.236662 2.133935 0
M  V30 13 C 1.877994 -0.149640 0.978652 0
M  V30 14 C 3.261859 -0.657222 1.380367 0
M  V30 15 C 4.072705 -1.068744 0.178305 0
M  V30 16 C 4.853419 -0.128291 -0.507162 0
M  V30 17 C 5.585482 -0.504847 -1.634107 0
M  V30 18 C 5.541072 -1.821731 -2.087768 0
M  V30 19 C 4.764162 -2.763442 -1.415748 0
M  V30 20 C 4.031073 -2.389348 -0.288593 0
M  V30 21 H -4.022067 3.178690 -0.330017 0
M  V30 22 H -3.697330 2.943503 -2.055427 0
M  V30 23 H -4.398350 1.633426 -1.114679 0
M  V30 24 H -1.995810 1.186419 -1.484989 0
M  V30 25 H -1.362758 3.553299 -1.920359 0
M  V30 26 H -1.472039 3.910627 -0.188243 0
M  V30 27 H -0.242784 2.786672 -0.796580 0
M  V30 28 H -2.379848 2.150877 1.395238 0
M  V30 29 H -4.188132 0.727001 1.039383 0
M  V30 30 H -3.041842 -0.224973 1.949279 0
M  V30 31 H -4.718213 -2.357260 -0.616742 0
M  V30 32 H -4.638047 -2.058652 1.134453 0
M  V30 33 H -5.450736 -0.908845 0.047674 0
M  V30 34 H -2.386498 -2.637784 -0.678704 0
M  V30 35 H -1.288727 -1.334428 -0.331269 0
M  V30 36 H -2.070374 -2.204520 1.011491 0
M  V30 37 H -0.333453 0.463329 0.158414 0
M  V30 38 H 1.520270 0.205603 3.047793 0
M  V30 39 H 1.325518 -0.925685 0.435966 0
M  V30 40 H 1.957230 0.722806 0.319296 0
M  V30 41 H 3.800824 0.117685 1.940755 0
M  V30 42 H 3.166989 -1.505489 2.070626 0
M  V30 43 H 4.897760 0.904242 -0.167279 0
M  V30 44 H 6.191173 0.229767 -2.158533 0
M  V30 45 H 6.112290 -2.114145 -2.964954 0
M  V30 46 H 4.729642 -3.790525 -1.769874 0
M  V30 47 H 3.428717 -3.136610 0.223380 0
M  V30 END ATOM
M  V30 BEGIN BOND
M  V30 1 1 1 2
M  V30 2 1 2 3
M  V30 3 1 2 4
M  V30 4 1 4 5
M  V30 5 1 5 6
M  V30 6 1 6 7
M  V30 7 1 6 8
M  V30 8 1 4 9
M  V30 9 1 9 10
M  V30 10 2 10 11
M  V30 11 1 10 12
M  V30 12 1 12 13
M  V30 13 1 13 14
M  V30 14 1 14 15
M  V30 15 2 15 16
M  V30 16 1 16 17
M  V30 17 2 17 18
M  V30 18 1 18 19
M  V30 19 2 19 20
M  V30 20 1 20 15
M  V30 21 1 1 21
M  V30 22 1 1 22
M  V30 23 1 1 23
M  V30 24 1 2 24
M  V30 25 1 3 25
M  V30 26 1 3 26
M  V30 27 1 3 27
M  V30 28 1 4 28 CFG=1
M  V30 29 1 5 29
M  V30 30 1 5 30
M  V30 31 1 7 31
M  V30 32 1 7 32
M  V30 33 1 7 33
M  V30 34 1 8 34
M  V30 35 1 8 35
M  V30 36 1 8 36
M  V30 37 1 9 37
M  V30 38 1 12 38
M  V30 39 1 13 39
M  V30 40 1 13 40
M  V30 41 1 14 41
M  V30 42 1 14 42
M  V30 43 1 16 43
M  V30 44 1 17 44
M  V30 45 1 18 45
M  V30 46 1 19 46
M  V30 47 1 20 47
M  V30 END BOND
M  V30 END CTAB
M  END
>  <catalyst_id>  (1) 
KWPFOBQTTPJJMA_OAHLLOKOSA_NONE

>  <source_smiles>  (1) 
CC(C)[C@@H](CN(C)C)NC(=S)NCCc1ccccc1

>  <axial_configuration>  (1) 
none

>  <inchikey>  (1) 
KWPFOBQTTPJJMA-OAHLLOKOSA-N

>  <build_source>  (1) 
smiles

>  <rdkit_version>  (1) 
2025.09.6

>  <random_seed>  (1) 
42

>  <generated_at>  (1) 
2026-05-19T12:37:08

$$$$
