catalyst42
     RDKit          3D

  0  0  0  0  0  0  0  0  0  0999 V3000
M  V30 BEGIN CTAB
M  V30 COUNTS 66 70 0 0 0
M  V30 BEGIN ATOM
M  V30 1 O 3.305861 2.954580 0.722242 0
M  V30 2 C 2.321511 2.271630 0.570769 0
M  V30 3 C 1.936388 0.905601 0.136213 0
M  V30 4 N 2.633877 -0.130778 -0.281720 0
M  V30 5 C 4.019069 -0.399632 -0.233832 0
M  V30 6 C 4.905769 0.243581 0.634747 0
M  V30 7 C 6.285867 -0.027927 0.614667 0
M  V30 8 C 7.217265 0.687359 1.565357 0
M  V30 9 F 8.306784 -0.063057 1.894999 0
M  V30 10 F 6.629220 1.020155 2.747173 0
M  V30 11 F 7.706559 1.843694 1.042678 0
M  V30 12 C 6.786499 -0.946402 -0.319289 0
M  V30 13 C 5.926829 -1.594460 -1.215616 0
M  V30 14 C 6.458208 -2.599316 -2.208638 0
M  V30 15 F 7.751631 -2.368551 -2.565070 0
M  V30 16 F 6.422315 -3.869968 -1.722518 0
M  V30 17 F 5.749208 -2.623462 -3.371441 0
M  V30 18 C 4.550562 -1.315819 -1.156063 0
M  V30 19 C 0.599393 1.185339 0.290059 0
M  V30 20 N -0.544998 0.555240 0.119011 0
M  V30 21 C -1.832645 1.007152 0.692545 0 CFG=2
M  V30 22 C -1.822711 0.734044 2.197398 0
M  V30 23 C -1.703570 -0.566843 2.714156 0
M  V30 24 C -1.693449 -0.788874 4.092472 0
M  V30 25 C -1.797039 0.285027 4.973324 0
M  V30 26 C -1.908273 1.581859 4.477706 0
M  V30 27 C -1.920422 1.805974 3.099833 0
M  V30 28 C -3.065435 0.298780 -0.034912 0 CFG=1
M  V30 29 C -3.686488 1.178260 -1.126292 0
M  V30 30 C -5.084806 1.274277 -1.232473 0
M  V30 31 C -5.675268 2.065412 -2.219907 0
M  V30 32 C -4.878542 2.770499 -3.118232 0
M  V30 33 C -3.491478 2.683306 -3.032350 0
M  V30 34 C -2.899112 1.892127 -2.046025 0
M  V30 35 N -2.757697 -1.101430 -0.457439 0
M  V30 36 C -2.364003 -1.313921 -1.851573 0
M  V30 37 C -2.329506 -2.832407 -1.929136 0
M  V30 38 C -3.427162 -3.289388 -0.974471 0
M  V30 39 C -3.871900 -2.027662 -0.244266 0
M  V30 40 C 0.882806 2.565624 0.755637 0
M  V30 41 O 0.285040 3.551917 1.110616 0
M  V30 42 H 2.121104 -0.920971 -0.671424 0
M  V30 43 H 4.537613 0.949444 1.375608 0
M  V30 44 H 7.857192 -1.156169 -0.348223 0
M  V30 45 H 3.885467 -1.815428 -1.860601 0
M  V30 46 H -0.587235 -0.451675 -0.047147 0
M  V30 47 H -1.927075 2.090748 0.543769 0
M  V30 48 H -1.612712 -1.419154 2.044966 0
M  V30 49 H -1.600526 -1.800633 4.478498 0
M  V30 50 H -1.785580 0.112433 6.046291 0
M  V30 51 H -1.980456 2.422312 5.163527 0
M  V30 52 H -1.995498 2.829713 2.735359 0
M  V30 53 H -3.836481 0.240109 0.749028 0
M  V30 54 H -5.727617 0.732756 -0.541682 0
M  V30 55 H -6.758148 2.132119 -2.286878 0
M  V30 56 H -5.338330 3.387625 -3.885670 0
M  V30 57 H -2.868378 3.231592 -3.734410 0
M  V30 58 H -1.813368 1.833632 -2.008745 0
M  V30 59 H -1.389504 -0.885047 -2.100560 0
M  V30 60 H -3.108907 -0.944543 -2.566173 0
M  V30 61 H -2.493858 -3.196319 -2.948039 0
M  V30 62 H -1.359046 -3.212595 -1.587264 0
M  V30 63 H -3.031677 -4.035815 -0.276514 0
M  V30 64 H -4.263637 -3.743250 -1.516217 0
M  V30 65 H -4.045128 -2.225024 0.818425 0
M  V30 66 H -4.804369 -1.657399 -0.686264 0
M  V30 END ATOM
M  V30 BEGIN BOND
M  V30 1 2 1 2
M  V30 2 1 2 3
M  V30 3 1 3 4
M  V30 4 1 4 5
M  V30 5 2 5 6
M  V30 6 1 6 7
M  V30 7 1 7 8
M  V30 8 1 8 9
M  V30 9 1 8 10
M  V30 10 1 8 11
M  V30 11 2 7 12
M  V30 12 1 12 13
M  V30 13 1 13 14
M  V30 14 1 14 15
M  V30 15 1 14 16
M  V30 16 1 14 17
M  V30 17 2 13 18
M  V30 18 2 3 19
M  V30 19 1 19 20
M  V30 20 1 20 21
M  V30 21 1 21 22
M  V30 22 2 22 23
M  V30 23 1 23 24
M  V30 24 2 24 25
M  V30 25 1 25 26
M  V30 26 2 26 27
M  V30 27 1 21 28
M  V30 28 1 28 29
M  V30 29 2 29 30
M  V30 30 1 30 31
M  V30 31 2 31 32
M  V30 32 1 32 33
M  V30 33 2 33 34
M  V30 34 1 28 35
M  V30 35 1 35 36
M  V30 36 1 36 37
M  V30 37 1 37 38
M  V30 38 1 38 39
M  V30 39 1 19 40
M  V30 40 2 40 41
M  V30 41 1 40 2
M  V30 42 1 18 5
M  V30 43 1 27 22
M  V30 44 1 34 29
M  V30 45 1 39 35
M  V30 46 1 4 42
M  V30 47 1 6 43
M  V30 48 1 12 44
M  V30 49 1 18 45
M  V30 50 1 20 46
M  V30 51 1 21 47 CFG=1
M  V30 52 1 23 48
M  V30 53 1 24 49
M  V30 54 1 25 50
M  V30 55 1 26 51
M  V30 56 1 27 52
M  V30 57 1 28 53 CFG=1
M  V30 58 1 30 54
M  V30 59 1 31 55
M  V30 60 1 32 56
M  V30 61 1 33 57
M  V30 62 1 34 58
M  V30 63 1 36 59
M  V30 64 1 36 60
M  V30 65 1 37 61
M  V30 66 1 37 62
M  V30 67 1 38 63
M  V30 68 1 38 64
M  V30 69 1 39 65
M  V30 70 1 39 66
M  V30 END BOND
M  V30 END CTAB
M  END
>  <catalyst_id>  (1) 
DFHJYNGKEORMSN_ZEQKJWHPSA_NONE

>  <source_smiles>  (1) 
O=c1c(Nc2cc(C(F)(F)F)cc(C(F)(F)F)c2)c(N[C@H](c2ccccc2)[C@@H](c2ccccc2)N2CCCC2)c1=O

>  <axial_configuration>  (1) 
none

>  <inchikey>  (1) 
DFHJYNGKEORMSN-ZEQKJWHPSA-N

>  <build_source>  (1) 
smiles

>  <rdkit_version>  (1) 
2025.09.6

>  <random_seed>  (1) 
42

>  <generated_at>  (1) 
2026-05-19T12:40:09

$$$$
