catalyst155
     RDKit          3D

  0  0  0  0  0  0  0  0  0  0999 V3000
M  V30 BEGIN CTAB
M  V30 COUNTS 64 66 0 0 0
M  V30 BEGIN ATOM
M  V30 1 C -1.181502 5.273863 -2.775606 0
M  V30 2 C -0.670736 3.848327 -2.600897 0
M  V30 3 C -0.272882 3.509035 -1.147699 0 CFG=2
M  V30 4 C 0.847027 4.432314 -0.640580 0
M  V30 5 C 0.133164 2.014580 -0.935070 0 CFG=1
M  V30 6 C -0.971353 0.982439 -1.275177 0
M  V30 7 P -2.422638 1.035999 -0.127716 0
M  V30 8 C -1.663110 0.387465 1.403919 0
M  V30 9 C -1.185236 -0.926166 1.519634 0
M  V30 10 C -0.614158 -1.376778 2.712339 0
M  V30 11 C -0.495203 -0.515218 3.799470 0
M  V30 12 C -0.955193 0.795200 3.697487 0
M  V30 13 C -1.538300 1.242903 2.508819 0
M  V30 14 C -3.473324 -0.365173 -0.648649 0
M  V30 15 C -4.441118 -0.858459 0.244857 0
M  V30 16 C -5.279632 -1.919662 -0.107422 0
M  V30 17 C -5.174640 -2.500323 -1.366772 0
M  V30 18 C -4.236803 -2.015028 -2.273236 0
M  V30 19 C -3.397688 -0.952656 -1.919136 0
M  V30 20 N 1.362568 1.693976 -1.686071 0
M  V30 21 C 2.233613 0.652732 -1.488778 0
M  V30 22 S 3.259142 0.306386 -2.758960 0
M  V30 23 N 2.161843 0.058601 -0.255202 0
M  V30 24 C 2.670694 -1.167081 0.223446 0
M  V30 25 C 2.993231 -2.257130 -0.584444 0
M  V30 26 C 3.460755 -3.461115 -0.026765 0
M  V30 27 C 3.779047 -4.634373 -0.923733 0
M  V30 28 F 4.614420 -5.539394 -0.341052 0
M  V30 29 F 4.378955 -4.271398 -2.089660 0
M  V30 30 F 2.662361 -5.329819 -1.273644 0
M  V30 31 C 3.574858 -3.570136 1.367706 0
M  V30 32 C 3.240340 -2.493041 2.199461 0
M  V30 33 C 3.318689 -2.616896 3.701309 0
M  V30 34 F 4.236793 -3.531779 4.117159 0
M  V30 35 F 2.131342 -3.001595 4.245830 0
M  V30 36 F 3.650243 -1.448027 4.316323 0
M  V30 37 C 2.780662 -1.302836 1.613186 0
M  V30 38 H -0.387289 6.008795 -2.616170 0
M  V30 39 H -1.557505 5.413877 -3.794408 0
M  V30 40 H -2.000082 5.486701 -2.080976 0
M  V30 41 H 0.176739 3.697826 -3.278614 0
M  V30 42 H -1.468485 3.177357 -2.934386 0
M  V30 43 H -1.145682 3.708966 -0.512941 0
M  V30 44 H 1.718892 4.409176 -1.302544 0
M  V30 45 H 0.503413 5.469064 -0.570857 0
M  V30 46 H 1.172383 4.136717 0.362790 0
M  V30 47 H 0.379487 1.913275 0.126850 0
M  V30 48 H -1.306577 1.134390 -2.305280 0
M  V30 49 H -0.547098 -0.028539 -1.250507 0
M  V30 50 H -1.262534 -1.622583 0.686868 0
M  V30 51 H -0.266446 -2.404057 2.791671 0
M  V30 52 H -0.053456 -0.869050 4.728005 0
M  V30 53 H -0.871966 1.467881 4.547557 0
M  V30 54 H -1.901405 2.267747 2.458878 0
M  V30 55 H -4.551313 -0.420700 1.235769 0
M  V30 56 H -6.014680 -2.287697 0.603521 0
M  V30 57 H -5.826357 -3.324593 -1.643786 0
M  V30 58 H -4.158555 -2.459766 -3.262213 0
M  V30 59 H -2.692210 -0.600711 -2.665327 0
M  V30 60 H 1.424618 2.059326 -2.630907 0
M  V30 61 H 1.835792 0.681681 0.471173 0
M  V30 62 H 2.855403 -2.216922 -1.661447 0
M  V30 63 H 3.920443 -4.506625 1.809161 0
M  V30 64 H 2.508236 -0.471277 2.263443 0
M  V30 END ATOM
M  V30 BEGIN BOND
M  V30 1 1 1 2
M  V30 2 1 2 3
M  V30 3 1 3 4
M  V30 4 1 3 5
M  V30 5 1 5 6
M  V30 6 1 6 7
M  V30 7 1 7 8
M  V30 8 2 8 9
M  V30 9 1 9 10
M  V30 10 2 10 11
M  V30 11 1 11 12
M  V30 12 2 12 13
M  V30 13 1 7 14
M  V30 14 2 14 15
M  V30 15 1 15 16
M  V30 16 2 16 17
M  V30 17 1 17 18
M  V30 18 2 18 19
M  V30 19 1 5 20
M  V30 20 1 20 21
M  V30 21 2 21 22
M  V30 22 1 21 23
M  V30 23 1 23 24
M  V30 24 2 24 25
M  V30 25 1 25 26
M  V30 26 1 26 27
M  V30 27 1 27 28
M  V30 28 1 27 29
M  V30 29 1 27 30
M  V30 30 2 26 31
M  V30 31 1 31 32
M  V30 32 1 32 33
M  V30 33 1 33 34
M  V30 34 1 33 35
M  V30 35 1 33 36
M  V30 36 2 32 37
M  V30 37 1 13 8
M  V30 38 1 19 14
M  V30 39 1 37 24
M  V30 40 1 1 38
M  V30 41 1 1 39
M  V30 42 1 1 40
M  V30 43 1 2 41
M  V30 44 1 2 42
M  V30 45 1 3 43 CFG=1
M  V30 46 1 4 44
M  V30 47 1 4 45
M  V30 48 1 4 46
M  V30 49 1 5 47 CFG=1
M  V30 50 1 6 48
M  V30 51 1 6 49
M  V30 52 1 9 50
M  V30 53 1 10 51
M  V30 54 1 11 52
M  V30 55 1 12 53
M  V30 56 1 13 54
M  V30 57 1 15 55
M  V30 58 1 16 56
M  V30 59 1 17 57
M  V30 60 1 18 58
M  V30 61 1 19 59
M  V30 62 1 20 60
M  V30 63 1 23 61
M  V30 64 1 25 62
M  V30 65 1 31 63
M  V30 66 1 37 64
M  V30 END BOND
M  V30 END CTAB
M  END
>  <catalyst_id>  (1) 
KILYNYXYTSWIFC_MHECFPHRSA_NONE

>  <source_smiles>  (1) 
CC[C@H](C)[C@@H](CP(c1ccccc1)c1ccccc1)NC(=S)Nc1cc(C(F)(F)F)cc(C(F)(F)F)c1

>  <axial_configuration>  (1) 
none

>  <inchikey>  (1) 
KILYNYXYTSWIFC-MHECFPHRSA-N

>  <build_source>  (1) 
smiles

>  <rdkit_version>  (1) 
2025.09.6

>  <random_seed>  (1) 
42

>  <generated_at>  (1) 
2026-05-19T12:33:41

$$$$
