catalyst353
     RDKit          3D

  0  0  0  0  0  0  0  0  0  0999 V3000
M  V30 BEGIN CTAB
M  V30 COUNTS 60 63 0 0 0
M  V30 BEGIN ATOM
M  V30 1 C 4.355471 -2.185756 -0.399081 0
M  V30 2 C 4.569807 -0.866091 -0.322568 0
M  V30 3 C 3.813315 0.254361 -1.006766 0 CFG=1
M  V30 4 C 2.545252 -0.118686 -1.826934 0
M  V30 5 N 1.446915 0.873694 -1.662886 0
M  V30 6 C 2.015728 2.221843 -1.908813 0
M  V30 7 C 3.025437 2.608376 -0.814246 0
M  V30 8 C 3.395919 1.355355 0.002820 0 CFG=1
M  V30 9 C 2.129268 0.881429 0.744928 0
M  V30 10 C 0.938354 0.846349 -0.246289 0 CFG=2
M  V30 11 C -0.114268 -0.285897 0.039500 0 CFG=1
M  V30 12 O 0.519653 -1.565501 0.216610 0
M  V30 13 Si -0.215431 -2.964173 -0.363522 0 VAL=4
M  V30 14 C -0.209878 -2.995578 -2.242849 0
M  V30 15 C -1.991144 -3.116109 0.231400 0
M  V30 16 C 0.734274 -4.470612 0.249184 0
M  V30 17 C -0.941072 0.071026 1.281758 0
M  V30 18 C -0.525192 -0.393778 2.537842 0
M  V30 19 C -1.271493 -0.072052 3.651653 0
M  V30 20 N -2.387515 0.679029 3.611094 0
M  V30 21 C -2.792685 1.144820 2.420327 0
M  V30 22 C -3.939232 1.924968 2.392567 0
M  V30 23 C -4.443331 2.469389 1.207433 0
M  V30 24 C -3.784695 2.233593 0.010238 0
M  V30 25 O -4.153013 2.701957 -1.219498 0
M  V30 26 C -5.328304 3.500963 -1.278540 0
M  V30 27 C -2.628354 1.448339 0.017332 0
M  V30 28 C -2.109100 0.883058 1.210169 0
M  V30 29 H 3.563274 -2.625860 -0.992685 0
M  V30 30 H 4.991043 -2.876176 0.148512 0
M  V30 31 H 5.408108 -0.538365 0.293124 0
M  V30 32 H 4.536223 0.704437 -1.703366 0
M  V30 33 H 2.814808 -0.170931 -2.890236 0
M  V30 34 H 2.166659 -1.111699 -1.589456 0
M  V30 35 H 1.210958 2.965968 -1.953818 0
M  V30 36 H 2.494797 2.248616 -2.895886 0
M  V30 37 H 3.920527 3.044307 -1.272972 0
M  V30 38 H 2.594855 3.370180 -0.153035 0
M  V30 39 H 4.197279 1.586620 0.713349 0
M  V30 40 H 1.899369 1.580034 1.558960 0
M  V30 41 H 2.313429 -0.094754 1.205207 0
M  V30 42 H 0.384911 1.788965 -0.119424 0
M  V30 43 H -0.782635 -0.341042 -0.828594 0
M  V30 44 H 0.814253 -2.971648 -2.626179 0
M  V30 45 H -0.692118 -3.905171 -2.612921 0
M  V30 46 H -0.748540 -2.133651 -2.647006 0
M  V30 47 H -2.034975 -3.106579 1.324339 0
M  V30 48 H -2.600926 -2.290209 -0.146155 0
M  V30 49 H -2.433621 -4.053098 -0.119736 0
M  V30 50 H 1.768026 -4.443579 -0.106876 0
M  V30 51 H 0.268786 -5.392113 -0.112428 0
M  V30 52 H 0.746762 -4.495710 1.342730 0
M  V30 53 H 0.365658 -1.004693 2.648410 0
M  V30 54 H -0.982605 -0.421177 4.638740 0
M  V30 55 H -4.459636 2.118680 3.328382 0
M  V30 56 H -5.344484 3.069937 1.264461 0
M  V30 57 H -6.207463 2.934356 -0.954314 0
M  V30 58 H -5.210967 4.418993 -0.693295 0
M  V30 59 H -5.484330 3.789261 -2.322542 0
M  V30 60 H -2.132112 1.291785 -0.937490 0
M  V30 END ATOM
M  V30 BEGIN BOND
M  V30 1 2 1 2
M  V30 2 1 2 3
M  V30 3 1 3 4
M  V30 4 1 4 5
M  V30 5 1 5 6
M  V30 6 1 6 7
M  V30 7 1 7 8
M  V30 8 1 8 9
M  V30 9 1 9 10
M  V30 10 1 10 11
M  V30 11 1 11 12
M  V30 12 1 12 13
M  V30 13 1 13 14
M  V30 14 1 13 15
M  V30 15 1 13 16
M  V30 16 1 11 17
M  V30 17 2 17 18
M  V30 18 1 18 19
M  V30 19 2 19 20
M  V30 20 1 20 21
M  V30 21 2 21 22
M  V30 22 1 22 23
M  V30 23 2 23 24
M  V30 24 1 24 25
M  V30 25 1 25 26
M  V30 26 1 24 27
M  V30 27 2 27 28
M  V30 28 1 8 3
M  V30 29 1 28 17
M  V30 30 1 10 5
M  V30 31 1 28 21
M  V30 32 1 1 29
M  V30 33 1 1 30
M  V30 34 1 2 31
M  V30 35 1 3 32 CFG=3
M  V30 36 1 4 33
M  V30 37 1 4 34
M  V30 38 1 6 35
M  V30 39 1 6 36
M  V30 40 1 7 37
M  V30 41 1 7 38
M  V30 42 1 8 39 CFG=1
M  V30 43 1 9 40
M  V30 44 1 9 41
M  V30 45 1 10 42 CFG=1
M  V30 46 1 11 43 CFG=3
M  V30 47 1 14 44
M  V30 48 1 14 45
M  V30 49 1 14 46
M  V30 50 1 15 47
M  V30 51 1 15 48
M  V30 52 1 15 49
M  V30 53 1 16 50
M  V30 54 1 16 51
M  V30 55 1 16 52
M  V30 56 1 18 53
M  V30 57 1 19 54
M  V30 58 1 22 55
M  V30 59 1 23 56
M  V30 60 1 26 57
M  V30 61 1 26 58
M  V30 62 1 26 59
M  V30 63 1 27 60
M  V30 END BOND
M  V30 END CTAB
M  END
>  <catalyst_id>  (1) 
UKECXMWGKYEZPW_ODYPEACGSA_NONE

>  <source_smiles>  (1) 
C=C[C@H]1CN2CC[C@H]1C[C@@H]2[C@@H](O[Si](C)(C)C)c1ccnc2ccc(OC)cc12

>  <axial_configuration>  (1) 
none

>  <inchikey>  (1) 
UKECXMWGKYEZPW-ODYPEACGSA-N

>  <build_source>  (1) 
smiles

>  <rdkit_version>  (1) 
2025.09.6

>  <random_seed>  (1) 
42

>  <generated_at>  (1) 
2026-05-19T12:30:43

$$$$
