catalyst264
     RDKit          3D

  0  0  0  0  0  0  0  0  0  0999 V3000
M  V30 BEGIN CTAB
M  V30 COUNTS 85 86 0 0 0
M  V30 BEGIN ATOM
M  V30 1 C -1.970677 -4.917185 -0.091819 0
M  V30 2 C -1.498115 -4.016072 1.006825 0
M  V30 3 O -0.812311 -4.374015 1.953574 0
M  V30 4 O -1.947867 -2.749274 0.798453 0
M  V30 5 C -1.523105 -1.803862 1.792920 0
M  V30 6 C -2.042982 -0.401581 1.436542 0 CFG=1
M  V30 7 O -1.388803 0.026012 0.238359 0
M  V30 8 C -1.710301 1.363485 -0.133206 0 CFG=1
M  V30 9 N -0.924769 1.635755 -1.323065 0
M  V30 10 C 0.431063 1.765586 -1.404854 0
M  V30 11 S 1.059945 2.519005 -2.745696 0
M  V30 12 N 1.115872 1.270552 -0.335379 0
M  V30 13 C 2.581387 1.136642 -0.140643 0 CFG=1
M  V30 14 C 2.876733 1.139575 1.372223 0
M  V30 15 C 2.338607 -0.100356 2.087131 0
M  V30 16 C 2.737786 -1.398618 1.392735 0
M  V30 17 C 2.468956 -1.359592 -0.114021 0
M  V30 18 C 3.176924 -0.159095 -0.818537 0 CFG=2
M  V30 19 N 4.680713 -0.239684 -0.767348 0
M  V30 20 C 5.436408 0.819960 -1.492005 0
M  V30 21 C 4.803437 1.419135 -2.749415 0
M  V30 22 C 5.884714 1.922219 -0.524229 0
M  V30 23 C 5.250303 -1.593862 -1.012511 0
M  V30 24 C 5.151007 -2.069121 -2.466018 0
M  V30 25 C 6.694670 -1.727120 -0.493667 0
M  V30 26 C -3.224546 1.538798 -0.367289 0 CFG=2
M  V30 27 O -3.565586 2.944304 -0.513679 0
M  V30 28 C -3.446393 3.466957 -1.762034 0
M  V30 29 C -3.877008 4.900231 -1.772408 0
M  V30 30 O -3.026115 2.856572 -2.733926 0
M  V30 31 C -4.021275 1.023473 0.841623 0 CFG=1
M  V30 32 O -5.415014 1.001163 0.433432 0
M  V30 33 C -6.343594 1.327823 1.369996 0
M  V30 34 C -7.717552 1.254415 0.779034 0
M  V30 35 O -6.102924 1.628538 2.530357 0
M  V30 36 C -3.569315 -0.385101 1.262012 0 CFG=2
M  V30 37 O -4.145982 -0.735446 2.540339 0
M  V30 38 C -5.283947 -1.480459 2.522959 0
M  V30 39 C -5.738448 -1.754759 3.923293 0
M  V30 40 O -5.861703 -1.868485 1.518458 0
M  V30 41 H -3.063098 -4.946162 -0.102930 0
M  V30 42 H -1.596106 -5.929685 0.083662 0
M  V30 43 H -1.584736 -4.564887 -1.051684 0
M  V30 44 H -0.427904 -1.790013 1.813931 0
M  V30 45 H -1.903410 -2.112894 2.773330 0
M  V30 46 H -1.745665 0.269423 2.253845 0
M  V30 47 H -1.360233 2.053459 0.645638 0
M  V30 48 H -1.419799 2.014794 -2.131222 0
M  V30 49 H 0.558104 0.597590 0.176649 0
M  V30 50 H 3.021316 2.033116 -0.577690 0
M  V30 51 H 2.441644 2.033792 1.835452 0
M  V30 52 H 3.957977 1.197571 1.540043 0
M  V30 53 H 1.246081 -0.041968 2.148184 0
M  V30 54 H 2.699813 -0.112162 3.122100 0
M  V30 55 H 3.799266 -1.592189 1.583412 0
M  V30 56 H 2.186146 -2.233663 1.839887 0
M  V30 57 H 2.735099 -2.316191 -0.574753 0
M  V30 58 H 1.385848 -1.296962 -0.277267 0
M  V30 59 H 2.858767 -0.189854 -1.867140 0
M  V30 60 H 6.379598 0.399741 -1.855052 0
M  V30 61 H 4.417924 0.645256 -3.419765 0
M  V30 62 H 5.555958 1.983469 -3.313015 0
M  V30 63 H 4.003523 2.118693 -2.514408 0
M  V30 64 H 5.060654 2.551272 -0.181946 0
M  V30 65 H 6.377811 1.494417 0.355786 0
M  V30 66 H 6.611277 2.581575 -1.013080 0
M  V30 67 H 4.719166 -2.325121 -0.400031 0
M  V30 68 H 5.770083 -1.469081 -3.140095 0
M  V30 69 H 4.118565 -2.037325 -2.827951 0
M  V30 70 H 5.492040 -3.107232 -2.548916 0
M  V30 71 H 6.779283 -1.337506 0.526855 0
M  V30 72 H 6.984344 -2.784089 -0.462685 0
M  V30 73 H 7.429437 -1.215845 -1.121841 0
M  V30 74 H -3.550618 0.983113 -1.257670 0
M  V30 75 H -3.208673 5.491607 -1.141840 0
M  V30 76 H -4.908932 4.980029 -1.421216 0
M  V30 77 H -3.828935 5.285392 -2.794924 0
M  V30 78 H -3.900116 1.727238 1.676049 0
M  V30 79 H -7.798051 1.950905 -0.059315 0
M  V30 80 H -7.926420 0.232634 0.452637 0
M  V30 81 H -8.453486 1.536457 1.537378 0
M  V30 82 H -3.867886 -1.100846 0.485374 0
M  V30 83 H -5.957594 -0.813392 4.433199 0
M  V30 84 H -6.650673 -2.357543 3.896431 0
M  V30 85 H -4.967576 -2.313447 4.459941 0
M  V30 END ATOM
M  V30 BEGIN BOND
M  V30 1 1 1 2
M  V30 2 2 2 3
M  V30 3 1 2 4
M  V30 4 1 4 5
M  V30 5 1 5 6
M  V30 6 1 6 7
M  V30 7 1 7 8
M  V30 8 1 8 9
M  V30 9 1 9 10
M  V30 10 2 10 11
M  V30 11 1 10 12
M  V30 12 1 12 13
M  V30 13 1 13 14
M  V30 14 1 14 15
M  V30 15 1 15 16
M  V30 16 1 16 17
M  V30 17 1 17 18
M  V30 18 1 18 19
M  V30 19 1 19 20
M  V30 20 1 20 21
M  V30 21 1 20 22
M  V30 22 1 19 23
M  V30 23 1 23 24
M  V30 24 1 23 25
M  V30 25 1 8 26
M  V30 26 1 26 27
M  V30 27 1 27 28
M  V30 28 1 28 29
M  V30 29 2 28 30
M  V30 30 1 26 31
M  V30 31 1 31 32
M  V30 32 1 32 33
M  V30 33 1 33 34
M  V30 34 2 33 35
M  V30 35 1 31 36
M  V30 36 1 36 37
M  V30 37 1 37 38
M  V30 38 1 38 39
M  V30 39 2 38 40
M  V30 40 1 36 6
M  V30 41 1 18 13
M  V30 42 1 1 41
M  V30 43 1 1 42
M  V30 44 1 1 43
M  V30 45 1 5 44
M  V30 46 1 5 45
M  V30 47 1 6 46 CFG=1
M  V30 48 1 8 47 CFG=1
M  V30 49 1 9 48
M  V30 50 1 12 49
M  V30 51 1 13 50 CFG=3
M  V30 52 1 14 51
M  V30 53 1 14 52
M  V30 54 1 15 53
M  V30 55 1 15 54
M  V30 56 1 16 55
M  V30 57 1 16 56
M  V30 58 1 17 57
M  V30 59 1 17 58
M  V30 60 1 18 59 CFG=3
M  V30 61 1 20 60
M  V30 62 1 21 61
M  V30 63 1 21 62
M  V30 64 1 21 63
M  V30 65 1 22 64
M  V30 66 1 22 65
M  V30 67 1 22 66
M  V30 68 1 23 67
M  V30 69 1 24 68
M  V30 70 1 24 69
M  V30 71 1 24 70
M  V30 72 1 25 71
M  V30 73 1 25 72
M  V30 74 1 25 73
M  V30 75 1 26 74 CFG=3
M  V30 76 1 29 75
M  V30 77 1 29 76
M  V30 78 1 29 77
M  V30 79 1 31 78 CFG=1
M  V30 80 1 34 79
M  V30 81 1 34 80
M  V30 82 1 34 81
M  V30 83 1 36 82 CFG=3
M  V30 84 1 39 83
M  V30 85 1 39 84
M  V30 86 1 39 85
M  V30 END BOND
M  V30 END CTAB
M  END
>  <catalyst_id>  (1) 
PQQCHJXAUAXSDN_XPLJPDESSA_NONE

>  <source_smiles>  (1) 
CC(=O)OC[C@H]1O[C@@H](NC(=S)N[C@H]2CCCC[C@@H]2N(C(C)C)C(C)C)[C@H](OC(C)=O)[C@@H](OC(C)=O)[C@@H]1OC(C)=O

>  <axial_configuration>  (1) 
none

>  <inchikey>  (1) 
PQQCHJXAUAXSDN-XPLJPDESSA-N

>  <build_source>  (1) 
smiles

>  <rdkit_version>  (1) 
2025.09.6

>  <random_seed>  (1) 
42

>  <generated_at>  (1) 
2026-05-19T12:33:28

$$$$
