catalyst299
     RDKit          3D

  0  0  0  0  0  0  0  0  0  0999 V3000
M  V30 BEGIN CTAB
M  V30 COUNTS 49 52 0 0 0
M  V30 BEGIN ATOM
M  V30 1 C -3.410218 2.921488 0.548301 0
M  V30 2 C -2.644443 1.857119 0.274862 0
M  V30 3 C -3.123540 0.427595 0.369448 0 CFG=1
M  V30 4 C -2.949673 -0.332333 -0.971688 0
M  V30 5 N -2.383259 -1.695088 -0.778262 0
M  V30 6 C -3.215994 -2.398760 0.227802 0
M  V30 7 C -3.127285 -1.726496 1.608534 0
M  V30 8 C -2.395864 -0.377642 1.474494 0 CFG=1
M  V30 9 C -0.954348 -0.682098 1.022406 0
M  V30 10 C -0.985470 -1.590499 -0.230597 0 CFG=2
M  V30 11 C 0.070836 -1.163628 -1.317267 0 CFG=2
M  V30 12 N -0.165788 -1.891813 -2.584243 0
M  V30 13 C 1.510439 -1.336292 -0.841287 0
M  V30 14 C 1.996881 -2.634857 -0.618350 0
M  V30 15 C 3.287276 -2.802670 -0.160709 0
M  V30 16 N 4.124407 -1.784037 0.100880 0
M  V30 17 C 3.683243 -0.535865 -0.109866 0
M  V30 18 C 4.564085 0.500297 0.163586 0
M  V30 19 C 4.216531 1.842585 -0.010664 0
M  V30 20 C 2.951771 2.165529 -0.475279 0
M  V30 21 O 2.468256 3.425481 -0.692008 0
M  V30 22 C 3.364064 4.505994 -0.460718 0
M  V30 23 C 2.050779 1.134125 -0.758234 0
M  V30 24 C 2.383074 -0.235585 -0.583336 0
M  V30 25 H -4.443252 2.819791 0.866092 0
M  V30 26 H -3.011751 3.928090 0.460146 0
M  V30 27 H -1.617008 2.029493 -0.040552 0
M  V30 28 H -4.195527 0.436101 0.614877 0
M  V30 29 H -2.337875 0.230857 -1.686106 0
M  V30 30 H -3.929567 -0.426119 -1.458758 0
M  V30 31 H -4.259138 -2.428994 -0.111783 0
M  V30 32 H -2.902825 -3.447423 0.302969 0
M  V30 33 H -4.134693 -1.575263 2.013656 0
M  V30 34 H -2.589370 -2.375456 2.310189 0
M  V30 35 H -2.397010 0.157674 2.430431 0
M  V30 36 H -0.415975 0.251804 0.835621 0
M  V30 37 H -0.418260 -1.197814 1.829069 0
M  V30 38 H -0.709357 -2.605985 0.089353 0
M  V30 39 H -0.116346 -0.119150 -1.569509 0
M  V30 40 H -1.168876 -1.786869 -2.773218 0
M  V30 41 H -0.076619 -2.890143 -2.408766 0
M  V30 42 H 1.384628 -3.511449 -0.799936 0
M  V30 43 H 3.694497 -3.793924 0.016144 0
M  V30 44 H 5.559850 0.254273 0.527073 0
M  V30 45 H 4.958089 2.597403 0.226019 0
M  V30 46 H 3.662729 4.551562 0.591765 0
M  V30 47 H 2.835653 5.434555 -0.697291 0
M  V30 48 H 4.237703 4.442929 -1.117942 0
M  V30 49 H 1.074539 1.431507 -1.128383 0
M  V30 END ATOM
M  V30 BEGIN BOND
M  V30 1 2 1 2
M  V30 2 1 2 3
M  V30 3 1 3 4
M  V30 4 1 4 5
M  V30 5 1 5 6
M  V30 6 1 6 7
M  V30 7 1 7 8
M  V30 8 1 8 9
M  V30 9 1 9 10
M  V30 10 1 10 11
M  V30 11 1 11 12
M  V30 12 1 11 13
M  V30 13 2 13 14
M  V30 14 1 14 15
M  V30 15 2 15 16
M  V30 16 1 16 17
M  V30 17 2 17 18
M  V30 18 1 18 19
M  V30 19 2 19 20
M  V30 20 1 20 21
M  V30 21 1 21 22
M  V30 22 1 20 23
M  V30 23 2 23 24
M  V30 24 1 8 3
M  V30 25 1 24 13
M  V30 26 1 10 5
M  V30 27 1 24 17
M  V30 28 1 1 25
M  V30 29 1 1 26
M  V30 30 1 2 27
M  V30 31 1 3 28 CFG=1
M  V30 32 1 4 29
M  V30 33 1 4 30
M  V30 34 1 6 31
M  V30 35 1 6 32
M  V30 36 1 7 33
M  V30 37 1 7 34
M  V30 38 1 8 35 CFG=1
M  V30 39 1 9 36
M  V30 40 1 9 37
M  V30 41 1 10 38 CFG=1
M  V30 42 1 11 39 CFG=3
M  V30 43 1 12 40
M  V30 44 1 12 41
M  V30 45 1 14 42
M  V30 46 1 15 43
M  V30 47 1 18 44
M  V30 48 1 19 45
M  V30 49 1 22 46
M  V30 50 1 22 47
M  V30 51 1 22 48
M  V30 52 1 23 49
M  V30 END BOND
M  V30 END CTAB
M  END
>  <catalyst_id>  (1) 
RIEKOKLABHBCGI_AFHBHXEDSA_NONE

>  <source_smiles>  (1) 
C=C[C@H]1CN2CC[C@H]1C[C@@H]2[C@H](N)c1ccnc2ccc(OC)cc12

>  <axial_configuration>  (1) 
none

>  <inchikey>  (1) 
RIEKOKLABHBCGI-AFHBHXEDSA-N

>  <build_source>  (1) 
smiles

>  <rdkit_version>  (1) 
2025.09.6

>  <random_seed>  (1) 
42

>  <generated_at>  (1) 
2026-05-19T12:34:17

$$$$
