catalyst224
     RDKit          3D

  0  0  0  0  0  0  0  0  0  0999 V3000
M  V30 BEGIN CTAB
M  V30 COUNTS 48 49 0 0 0
M  V30 BEGIN ATOM
M  V30 1 C -2.849892 -1.851983 1.163687 0
M  V30 2 N -2.767816 -0.409540 1.401908 0
M  V30 3 C -3.551298 -0.054265 2.587298 0
M  V30 4 C -3.134945 0.421331 0.222653 0 CFG=2
M  V30 5 C -4.532643 0.171828 -0.374872 0
M  V30 6 C -4.832544 1.160526 -1.502727 0
M  V30 7 C -3.753345 1.147706 -2.580563 0
M  V30 8 C -2.358270 1.360227 -1.996432 0
M  V30 9 C -2.050649 0.324477 -0.903624 0 CFG=1
M  V30 10 N -0.714453 0.525006 -0.312055 0
M  V30 11 C 0.508921 0.127932 -0.841777 0
M  V30 12 S 0.707733 -0.555722 -2.352485 0
M  V30 13 N 1.505856 0.461583 0.069470 0
M  V30 14 C 2.862804 0.087114 0.154601 0
M  V30 15 C 3.395082 -1.072751 -0.409175 0
M  V30 16 C 4.754573 -1.398984 -0.255314 0
M  V30 17 C 5.310249 -2.649613 -0.895076 0
M  V30 18 F 6.426890 -3.114001 -0.266147 0
M  V30 19 F 5.667787 -2.454084 -2.192885 0
M  V30 20 F 4.429343 -3.687652 -0.895221 0
M  V30 21 C 5.584672 -0.537579 0.477583 0
M  V30 22 C 5.067455 0.622744 1.070254 0
M  V30 23 C 5.950909 1.528011 1.894023 0
M  V30 24 F 5.970322 1.170712 3.206998 0
M  V30 25 F 7.248987 1.525563 1.483675 0
M  V30 26 F 5.553032 2.830292 1.866003 0
M  V30 27 C 3.701204 0.911901 0.915734 0
M  V30 28 H -3.874948 -2.190332 0.978935 0
M  V30 29 H -2.469910 -2.398812 2.034553 0
M  V30 30 H -2.224040 -2.158410 0.320445 0
M  V30 31 H -3.164675 -0.578481 3.468739 0
M  V30 32 H -3.466514 1.016354 2.803677 0
M  V30 33 H -4.612110 -0.305071 2.483566 0
M  V30 34 H -3.108564 1.464700 0.572472 0
M  V30 35 H -5.308452 0.275125 0.391310 0
M  V30 36 H -4.603994 -0.847818 -0.772045 0
M  V30 37 H -4.915975 2.171643 -1.085210 0
M  V30 38 H -5.803301 0.921745 -1.951830 0
M  V30 39 H -3.781850 0.188646 -3.112407 0
M  V30 40 H -3.964809 1.928145 -3.320283 0
M  V30 41 H -2.283740 2.373405 -1.580303 0
M  V30 42 H -1.624761 1.311079 -2.807014 0
M  V30 43 H -2.075054 -0.678013 -1.347100 0
M  V30 44 H -0.754522 0.420912 0.698506 0
M  V30 45 H 1.231160 1.236145 0.661238 0
M  V30 46 H 2.762960 -1.773692 -0.947644 0
M  V30 47 H 6.642679 -0.778654 0.595253 0
M  V30 48 H 3.300457 1.810602 1.383903 0
M  V30 END ATOM
M  V30 BEGIN BOND
M  V30 1 1 1 2
M  V30 2 1 2 3
M  V30 3 1 2 4
M  V30 4 1 4 5
M  V30 5 1 5 6
M  V30 6 1 6 7
M  V30 7 1 7 8
M  V30 8 1 8 9
M  V30 9 1 9 10
M  V30 10 1 10 11
M  V30 11 2 11 12
M  V30 12 1 11 13
M  V30 13 1 13 14
M  V30 14 2 14 15
M  V30 15 1 15 16
M  V30 16 1 16 17
M  V30 17 1 17 18
M  V30 18 1 17 19
M  V30 19 1 17 20
M  V30 20 2 16 21
M  V30 21 1 21 22
M  V30 22 1 22 23
M  V30 23 1 23 24
M  V30 24 1 23 25
M  V30 25 1 23 26
M  V30 26 2 22 27
M  V30 27 1 9 4
M  V30 28 1 27 14
M  V30 29 1 1 28
M  V30 30 1 1 29
M  V30 31 1 1 30
M  V30 32 1 3 31
M  V30 33 1 3 32
M  V30 34 1 3 33
M  V30 35 1 4 34 CFG=1
M  V30 36 1 5 35
M  V30 37 1 5 36
M  V30 38 1 6 37
M  V30 39 1 6 38
M  V30 40 1 7 39
M  V30 41 1 7 40
M  V30 42 1 8 41
M  V30 43 1 8 42
M  V30 44 1 9 43 CFG=3
M  V30 45 1 10 44
M  V30 46 1 13 45
M  V30 47 1 15 46
M  V30 48 1 21 47
M  V30 49 1 27 48
M  V30 END BOND
M  V30 END CTAB
M  END
>  <catalyst_id>  (1) 
NQRCAVZHOLYEBJ_ZIAGYGMSSA_NONE

>  <source_smiles>  (1) 
CN(C)[C@@H]1CCCC[C@H]1NC(=S)Nc1cc(C(F)(F)F)cc(C(F)(F)F)c1

>  <axial_configuration>  (1) 
none

>  <inchikey>  (1) 
NQRCAVZHOLYEBJ-ZIAGYGMSSA-N

>  <build_source>  (1) 
smiles

>  <rdkit_version>  (1) 
2025.09.6

>  <random_seed>  (1) 
42

>  <generated_at>  (1) 
2026-05-19T12:30:07

$$$$
