catalyst160
     RDKit          3D

  0  0  0  0  0  0  0  0  0  0999 V3000
M  V30 BEGIN CTAB
M  V30 COUNTS 97 103 0 0 0
M  V30 BEGIN ATOM
M  V30 1 C -8.552323 -2.177415 0.095396 0
M  V30 2 C -7.077027 -2.540436 0.015053 0
M  V30 3 C -6.328699 -2.371724 1.350260 0 CFG=1
M  V30 4 C -4.845947 -2.803037 1.209680 0
M  V30 5 N -3.910040 -1.710932 1.578163 0
M  V30 6 C -4.139149 -1.367295 3.001103 0
M  V30 7 C -5.596624 -0.966777 3.267620 0
M  V30 8 C -6.370934 -0.939214 1.937384 0 CFG=1
M  V30 9 C -5.624068 0.039257 1.016274 0
M  V30 10 C -4.219255 -0.525770 0.699686 0 CFG=1
M  V30 11 C -3.102062 0.574701 0.766921 0 CFG=1
M  V30 12 N -1.780393 -0.042379 0.842888 0
M  V30 13 C -0.730615 0.632708 1.410552 0
M  V30 14 O -0.789877 1.776512 1.835029 0
M  V30 15 N 0.386069 -0.163398 1.438788 0
M  V30 16 C 1.659475 0.356471 1.880364 0 CFG=2
M  V30 17 N 2.646998 -0.303822 1.061727 0
M  V30 18 C 3.742985 0.336879 0.559389 0
M  V30 19 O 3.969525 1.532065 0.671597 0
M  V30 20 O 4.550142 -0.594644 -0.073018 0
M  V30 21 C 5.714991 -0.044494 -0.633407 0
M  V30 22 C 6.816098 0.112896 0.204232 0
M  V30 23 C 8.015500 0.609123 -0.304290 0
M  V30 24 C 9.111018 0.776045 0.560217 0
M  V30 25 C 10.326161 1.268449 0.093602 0
M  V30 26 C 10.458891 1.599881 -1.245423 0
M  V30 27 C 9.375599 1.437754 -2.115051 0
M  V30 28 C 8.120319 0.939113 -1.681522 0
M  V30 29 C 6.978227 0.752966 -2.546410 0
M  V30 30 C 6.986480 1.043651 -3.935332 0
M  V30 31 C 5.868236 0.848729 -4.751053 0
M  V30 32 C 4.696134 0.353226 -4.206134 0
M  V30 33 C 4.646582 0.055544 -2.847330 0
M  V30 34 C 5.766003 0.249292 -2.006534 0
M  V30 35 C 1.919218 0.122690 3.413880 0
M  V30 36 C 3.306336 0.669570 3.815589 0
M  V30 37 C 1.865280 -1.376008 3.777387 0
M  V30 38 C 0.873168 0.861450 4.273696 0
M  V30 39 C -3.192286 1.577135 -0.381527 0
M  V30 40 C -3.571426 2.888006 -0.056965 0
M  V30 41 C -3.699167 3.818986 -1.066445 0
M  V30 42 N -3.487065 3.544578 -2.366282 0
M  V30 43 C -3.095400 2.304587 -2.693200 0
M  V30 44 C -2.852609 2.045983 -4.034412 0
M  V30 45 C -2.431240 0.793220 -4.490112 0
M  V30 46 C -2.241683 -0.236670 -3.582145 0
M  V30 47 O -1.827581 -1.506036 -3.874625 0
M  V30 48 C -1.560501 -1.794417 -5.241818 0
M  V30 49 C -2.485295 0.005048 -2.227380 0
M  V30 50 C -2.921590 1.267322 -1.747124 0
M  V30 51 H -9.051993 -2.429292 -0.845626 0
M  V30 52 H -9.049934 -2.727124 0.900421 0
M  V30 53 H -8.693054 -1.106218 0.266120 0
M  V30 54 H -6.604110 -1.948348 -0.776542 0
M  V30 55 H -7.000056 -3.589394 -0.298325 0
M  V30 56 H -6.804167 -3.045566 2.077161 0
M  V30 57 H -4.653948 -3.673865 1.850180 0
M  V30 58 H -4.620156 -3.142997 0.191055 0
M  V30 59 H -3.870189 -2.224433 3.631377 0
M  V30 60 H -3.463612 -0.562710 3.313660 0
M  V30 61 H -6.062672 -1.677985 3.960062 0
M  V30 62 H -5.630509 0.019324 3.746081 0
M  V30 63 H -7.396772 -0.602605 2.115769 0
M  V30 64 H -5.561820 1.017093 1.509013 0
M  V30 65 H -6.181652 0.192632 0.085307 0
M  V30 66 H -4.243706 -0.909063 -0.327618 0
M  V30 67 H -3.229741 1.114373 1.715446 0
M  V30 68 H -1.827932 -1.015410 1.125197 0
M  V30 69 H 0.434015 -0.753000 0.624000 0
M  V30 70 H 1.693154 1.433022 1.671196 0
M  V30 71 H 2.657230 -1.309859 1.010237 0
M  V30 72 H 6.724057 -0.146116 1.255598 0
M  V30 73 H 9.023293 0.524868 1.615513 0
M  V30 74 H 11.162632 1.394466 0.775318 0
M  V30 75 H 11.402243 1.987740 -1.620810 0
M  V30 76 H 9.536158 1.715836 -3.152602 0
M  V30 77 H 7.878087 1.435536 -4.416303 0
M  V30 78 H 5.920031 1.089226 -5.809602 0
M  V30 79 H 3.820121 0.202869 -4.830645 0
M  V30 80 H 3.712720 -0.327246 -2.441500 0
M  V30 81 H 3.464125 0.591670 4.897738 0
M  V30 82 H 3.407375 1.725794 3.542630 0
M  V30 83 H 4.118635 0.113406 3.336381 0
M  V30 84 H 2.034406 -1.525497 4.850238 0
M  V30 85 H 0.890267 -1.813410 3.537043 0
M  V30 86 H 2.632343 -1.949334 3.246244 0
M  V30 87 H -0.131353 0.448446 4.136778 0
M  V30 88 H 0.845203 1.929200 4.030756 0
M  V30 89 H 1.106813 0.774717 5.341499 0
M  V30 90 H -3.752773 3.188312 0.970543 0
M  V30 91 H -3.984983 4.844154 -0.849513 0
M  V30 92 H -2.991286 2.851993 -4.752271 0
M  V30 93 H -2.258847 0.668885 -5.553367 0
M  V30 94 H -0.745087 -1.171744 -5.624580 0
M  V30 95 H -2.463102 -1.684309 -5.851949 0
M  V30 96 H -1.240332 -2.838793 -5.306498 0
M  V30 97 H -2.315695 -0.818617 -1.539748 0
M  V30 END ATOM
M  V30 BEGIN BOND
M  V30 1 1 1 2
M  V30 2 1 2 3
M  V30 3 1 3 4
M  V30 4 1 4 5
M  V30 5 1 5 6
M  V30 6 1 6 7
M  V30 7 1 7 8
M  V30 8 1 8 9
M  V30 9 1 9 10
M  V30 10 1 10 11
M  V30 11 1 11 12
M  V30 12 1 12 13
M  V30 13 2 13 14
M  V30 14 1 13 15
M  V30 15 1 15 16
M  V30 16 1 16 17
M  V30 17 1 17 18
M  V30 18 2 18 19
M  V30 19 1 18 20
M  V30 20 1 20 21
M  V30 21 2 21 22
M  V30 22 1 22 23
M  V30 23 2 23 24
M  V30 24 1 24 25
M  V30 25 2 25 26
M  V30 26 1 26 27
M  V30 27 2 27 28
M  V30 28 1 28 29
M  V30 29 2 29 30
M  V30 30 1 30 31
M  V30 31 2 31 32
M  V30 32 1 32 33
M  V30 33 2 33 34
M  V30 34 1 16 35
M  V30 35 1 35 36
M  V30 36 1 35 37
M  V30 37 1 35 38
M  V30 38 1 11 39
M  V30 39 2 39 40
M  V30 40 1 40 41
M  V30 41 2 41 42
M  V30 42 1 42 43
M  V30 43 2 43 44
M  V30 44 1 44 45
M  V30 45 2 45 46
M  V30 46 1 46 47
M  V30 47 1 47 48
M  V30 48 1 46 49
M  V30 49 2 49 50
M  V30 50 1 8 3
M  V30 51 1 34 21
M  V30 52 1 50 39
M  V30 53 1 10 5
M  V30 54 1 28 23
M  V30 55 1 34 29
M  V30 56 1 50 43
M  V30 57 1 1 51
M  V30 58 1 1 52
M  V30 59 1 1 53
M  V30 60 1 2 54
M  V30 61 1 2 55
M  V30 62 1 3 56 CFG=1
M  V30 63 1 4 57
M  V30 64 1 4 58
M  V30 65 1 6 59
M  V30 66 1 6 60
M  V30 67 1 7 61
M  V30 68 1 7 62
M  V30 69 1 8 63 CFG=1
M  V30 70 1 9 64
M  V30 71 1 9 65
M  V30 72 1 10 66 CFG=3
M  V30 73 1 11 67 CFG=1
M  V30 74 1 12 68
M  V30 75 1 15 69
M  V30 76 1 16 70 CFG=1
M  V30 77 1 17 71
M  V30 78 1 22 72
M  V30 79 1 24 73
M  V30 80 1 25 74
M  V30 81 1 26 75
M  V30 82 1 27 76
M  V30 83 1 30 77
M  V30 84 1 31 78
M  V30 85 1 32 79
M  V30 86 1 33 80
M  V30 87 1 36 81
M  V30 88 1 36 82
M  V30 89 1 36 83
M  V30 90 1 37 84
M  V30 91 1 37 85
M  V30 92 1 37 86
M  V30 93 1 38 87
M  V30 94 1 38 88
M  V30 95 1 38 89
M  V30 96 1 40 90
M  V30 97 1 41 91
M  V30 98 1 44 92
M  V30 99 1 45 93
M  V30 100 1 48 94
M  V30 101 1 48 95
M  V30 102 1 48 96
M  V30 103 1 49 97
M  V30 END BOND
M  V30 END CTAB
M  END
>  <catalyst_id>  (1) 
KOTIJJASKWGDDB_ZSTNLOLHSA_NONE

>  <source_smiles>  (1) 
CC[C@H]1CN2CC[C@H]1C[C@H]2[C@@H](NC(=O)N[C@H](NC(=O)Oc1cc2ccccc2c2ccccc12)C(C)(C)C)c1ccnc2ccc(OC)cc12

>  <axial_configuration>  (1) 
none

>  <inchikey>  (1) 
KOTIJJASKWGDDB-ZSTNLOLHSA-N

>  <build_source>  (1) 
smiles

>  <rdkit_version>  (1) 
2025.09.6

>  <random_seed>  (1) 
42

>  <generated_at>  (1) 
2026-05-19T12:36:38

$$$$
