catalyst71
     RDKit          3D

  0  0  0  0  0  0  0  0  0  0999 V3000
M  V30 BEGIN CTAB
M  V30 COUNTS 103 109 0 0 0
M  V30 BEGIN ATOM
M  V30 1 C -5.630305 4.675179 -1.627896 0
M  V30 2 C -4.620864 3.621121 -1.293382 0
M  V30 3 O -3.782565 3.192529 -2.072859 0
M  V30 4 O -4.795352 3.190623 -0.014001 0
M  V30 5 C -3.862380 2.194807 0.428950 0
M  V30 6 C -4.169426 0.780811 -0.099859 0 CFG=1
M  V30 7 O -3.078728 -0.059592 0.288139 0
M  V30 8 C -3.175320 -1.378866 -0.242147 0 CFG=1
M  V30 9 N -1.953862 -2.049043 0.161499 0
M  V30 10 C -0.693402 -1.806960 -0.298553 0
M  V30 11 S 0.480650 -2.956856 -0.027074 0
M  V30 12 N -0.543494 -0.626761 -0.969803 0
M  V30 13 C 0.717874 -0.037828 -1.461405 0 CFG=1
M  V30 14 C 0.425212 0.938311 -2.614610 0
M  V30 15 C -0.278608 2.213729 -2.153688 0
M  V30 16 C 0.427648 2.877197 -0.976164 0
M  V30 17 C 0.691493 1.884501 0.154712 0
M  V30 18 C 1.537886 0.667432 -0.312869 0 CFG=2
M  V30 19 N 2.926571 1.060172 -0.724048 0
M  V30 20 C 3.667622 -0.105990 -1.283877 0
M  V30 21 C 5.168057 0.099327 -1.442919 0
M  V30 22 C 5.708118 0.279770 -2.720344 0
M  V30 23 C 7.066268 0.535526 -2.878785 0
M  V30 24 C 7.908732 0.665430 -1.768695 0
M  V30 25 C 9.265158 0.979146 -1.960817 0
M  V30 26 C 10.121651 1.164785 -0.878121 0
M  V30 27 C 9.628537 1.049652 0.412677 0
M  V30 28 C 8.283611 0.731438 0.617259 0
M  V30 29 C 7.388803 0.503716 -0.458544 0
M  V30 30 C 6.008087 0.155379 -0.296526 0
M  V30 31 C 5.377648 -0.050603 1.044563 0
M  V30 32 C 4.277276 0.780026 1.390726 0
M  V30 33 C 3.674387 0.667567 2.646425 0
M  V30 34 C 4.128344 -0.281202 3.556662 0
M  V30 35 C 5.159015 -1.167510 3.219926 0
M  V30 36 C 5.555109 -2.153946 4.139056 0
M  V30 37 C 6.545113 -3.080419 3.818978 0
M  V30 38 C 7.145374 -3.038378 2.569478 0
M  V30 39 C 6.765636 -2.059122 1.648525 0
M  V30 40 C 5.784056 -1.082136 1.949094 0
M  V30 41 C 3.696893 1.727415 0.355564 0
M  V30 42 C -4.443638 -2.087894 0.270147 0 CFG=2
M  V30 43 O -4.652361 -3.345568 -0.426869 0
M  V30 44 C -4.003839 -4.427678 0.077646 0
M  V30 45 C -4.342396 -5.654564 -0.709692 0
M  V30 46 O -3.236743 -4.397181 1.028783 0
M  V30 47 C -5.686786 -1.226502 -0.002065 0 CFG=1
M  V30 48 O -6.776721 -1.842538 0.735820 0
M  V30 49 C -8.005396 -1.838937 0.155806 0
M  V30 50 C -8.996701 -2.518548 1.049113 0
M  V30 51 O -8.275257 -1.345033 -0.929456 0
M  V30 52 C -5.495169 0.231188 0.457065 0 CFG=2
M  V30 53 O -6.571507 1.045676 -0.056713 0
M  V30 54 C -7.616935 1.285166 0.779178 0
M  V30 55 C -8.630886 2.153604 0.101143 0
M  V30 56 O -7.719493 0.866365 1.922896 0
M  V30 57 H -5.635991 5.446605 -0.853366 0
M  V30 58 H -5.358712 5.147909 -2.576051 0
M  V30 59 H -6.618988 4.221222 -1.725029 0
M  V30 60 H -3.886679 2.192614 1.525335 0
M  V30 61 H -2.839407 2.494987 0.166710 0
M  V30 62 H -4.222377 0.817805 -1.195128 0
M  V30 63 H -3.172658 -1.338512 -1.339269 0
M  V30 64 H -2.047858 -2.937947 0.654190 0
M  V30 65 H -1.270832 0.042020 -0.745573 0
M  V30 66 H 1.283756 -0.877160 -1.873847 0
M  V30 67 H 1.366546 1.213201 -3.106047 0
M  V30 68 H -0.191731 0.444852 -3.375643 0
M  V30 69 H -1.309491 1.976107 -1.868156 0
M  V30 70 H -0.344184 2.920172 -2.989097 0
M  V30 71 H -0.190214 3.701715 -0.602080 0
M  V30 72 H 1.371680 3.320219 -1.314407 0
M  V30 73 H 1.145673 2.402998 1.003045 0
M  V30 74 H -0.270460 1.529977 0.546652 0
M  V30 75 H 1.610730 -0.025040 0.534644 0
M  V30 76 H 3.267300 -0.325573 -2.280180 0
M  V30 77 H 3.502848 -1.013606 -0.687076 0
M  V30 78 H 5.070729 0.234653 -3.600311 0
M  V30 79 H 7.456677 0.668113 -3.885720 0
M  V30 80 H 9.665632 1.093944 -2.966029 0
M  V30 81 H 11.166426 1.411650 -1.044761 0
M  V30 82 H 10.282789 1.208401 1.265706 0
M  V30 83 H 7.935265 0.668422 1.646247 0
M  V30 84 H 2.833593 1.302594 2.914002 0
M  V30 85 H 3.638228 -0.350048 4.525686 0
M  V30 86 H 5.080402 -2.217113 5.116078 0
M  V30 87 H 6.833626 -3.841048 4.539030 0
M  V30 88 H 7.905635 -3.767227 2.301907 0
M  V30 89 H 7.247281 -2.073515 0.672790 0
M  V30 90 H 3.121548 2.512934 0.852667 0
M  V30 91 H 4.511332 2.310463 -0.096831 0
M  V30 92 H -4.380856 -2.269071 1.352369 0
M  V30 93 H -3.854596 -6.522008 -0.256053 0
M  V30 94 H -5.422901 -5.818375 -0.694775 0
M  V30 95 H -3.983336 -5.545984 -1.736006 0
M  V30 96 H -5.914253 -1.258211 -1.076118 0
M  V30 97 H -8.686076 -3.550656 1.229971 0
M  V30 98 H -9.082681 -1.971230 1.991045 0
M  V30 99 H -9.975350 -2.530781 0.560919 0
M  V30 100 H -5.465915 0.262638 1.554261 0
M  V30 101 H -8.237975 3.167565 -0.001317 0
M  V30 102 H -8.884043 1.738388 -0.877875 0
M  V30 103 H -9.542825 2.183005 0.704216 0
M  V30 END ATOM
M  V30 BEGIN BOND
M  V30 1 1 1 2
M  V30 2 2 2 3
M  V30 3 1 2 4
M  V30 4 1 4 5
M  V30 5 1 5 6
M  V30 6 1 6 7
M  V30 7 1 7 8
M  V30 8 1 8 9
M  V30 9 1 9 10
M  V30 10 2 10 11
M  V30 11 1 10 12
M  V30 12 1 12 13
M  V30 13 1 13 14
M  V30 14 1 14 15
M  V30 15 1 15 16
M  V30 16 1 16 17
M  V30 17 1 17 18
M  V30 18 1 18 19
M  V30 19 1 19 20
M  V30 20 1 20 21
M  V30 21 2 21 22
M  V30 22 1 22 23
M  V30 23 2 23 24
M  V30 24 1 24 25
M  V30 25 2 25 26
M  V30 26 1 26 27
M  V30 27 2 27 28
M  V30 28 1 28 29
M  V30 29 2 29 30
M  V30 30 1 30 31
M  V30 31 2 31 32
M  V30 32 1 32 33
M  V30 33 2 33 34
M  V30 34 1 34 35
M  V30 35 2 35 36
M  V30 36 1 36 37
M  V30 37 2 37 38
M  V30 38 1 38 39
M  V30 39 2 39 40
M  V30 40 1 32 41
M  V30 41 1 8 42
M  V30 42 1 42 43
M  V30 43 1 43 44
M  V30 44 1 44 45
M  V30 45 2 44 46
M  V30 46 1 42 47
M  V30 47 1 47 48
M  V30 48 1 48 49
M  V30 49 1 49 50
M  V30 50 2 49 51
M  V30 51 1 47 52
M  V30 52 1 52 53
M  V30 53 1 53 54
M  V30 54 1 54 55
M  V30 55 2 54 56
M  V30 56 1 52 6
M  V30 57 1 18 13
M  V30 58 1 41 19
M  V30 59 1 30 21
M  V30 60 1 40 31
M  V30 61 1 29 24
M  V30 62 1 40 35
M  V30 63 1 1 57
M  V30 64 1 1 58
M  V30 65 1 1 59
M  V30 66 1 5 60
M  V30 67 1 5 61
M  V30 68 1 6 62 CFG=3
M  V30 69 1 8 63 CFG=3
M  V30 70 1 9 64
M  V30 71 1 12 65
M  V30 72 1 13 66 CFG=3
M  V30 73 1 14 67
M  V30 74 1 14 68
M  V30 75 1 15 69
M  V30 76 1 15 70
M  V30 77 1 16 71
M  V30 78 1 16 72
M  V30 79 1 17 73
M  V30 80 1 17 74
M  V30 81 1 18 75 CFG=1
M  V30 82 1 20 76
M  V30 83 1 20 77
M  V30 84 1 22 78
M  V30 85 1 23 79
M  V30 86 1 25 80
M  V30 87 1 26 81
M  V30 88 1 27 82
M  V30 89 1 28 83
M  V30 90 1 33 84
M  V30 91 1 34 85
M  V30 92 1 36 86
M  V30 93 1 37 87
M  V30 94 1 38 88
M  V30 95 1 39 89
M  V30 96 1 41 90
M  V30 97 1 41 91
M  V30 98 1 42 92 CFG=1
M  V30 99 1 45 93
M  V30 100 1 45 94
M  V30 101 1 45 95
M  V30 102 1 47 96 CFG=3
M  V30 103 1 50 97
M  V30 104 1 50 98
M  V30 105 1 50 99
M  V30 106 1 52 100 CFG=1
M  V30 107 1 55 101
M  V30 108 1 55 102
M  V30 109 1 55 103
M  V30 END BOND
M  V30 END CTAB
M  END
>  <catalyst_id>  (1) 
GACABSBYFIMBBQ_UDKWURJKSA_R

>  <source_smiles>  (1) 
CC(=O)OC[C@H]1O[C@@H](NC(=S)N[C@H]2CCCC[C@@H]2N2Cc3ccc4ccccc4c3-c3c(ccc4ccccc34)C2)[C@H](OC(C)=O)[C@@H](OC(C)=O)[C@@H]1OC(C)=O

>  <axial_configuration>  (1) 
R

>  <inchikey>  (1) 
GACABSBYFIMBBQ-UDKWURJKSA-N

>  <build_source>  (1) 
smiles+axial_bridged

>  <final_biaryl_angle_deg>  (1) 
120.69

>  <n_valid_conformers>  (1) 
6

>  <rdkit_version>  (1) 
2025.09.6

>  <random_seed>  (1) 
42

>  <generated_at>  (1) 
2026-05-19T12:35:25

$$$$
