catalyst36
     RDKit          3D

  0  0  0  0  0  0  0  0  0  0999 V3000
M  V30 BEGIN CTAB
M  V30 COUNTS 52 54 0 0 0
M  V30 BEGIN ATOM
M  V30 1 C -2.763166 -2.757418 2.003341 0
M  V30 2 N -1.541095 -2.291966 1.334038 0
M  V30 3 C -0.390222 -2.550962 2.189964 0
M  V30 4 C -1.697588 -0.884063 0.840670 0 CFG=2
M  V30 5 C -2.647161 -0.899763 -0.369038 0
M  V30 6 C -3.779110 -0.069172 -0.394945 0
M  V30 7 C -4.630825 -0.066157 -1.500904 0
M  V30 8 C -4.366276 -0.894445 -2.590020 0
M  V30 9 C -3.250543 -1.728686 -2.576107 0
M  V30 10 C -2.395283 -1.732066 -1.473701 0
M  V30 11 C -0.365768 -0.082463 0.469191 0 CFG=2
M  V30 12 N 0.473437 0.190480 1.656066 0
M  V30 13 C 1.824339 0.388525 1.739202 0
M  V30 14 S 2.450685 0.497794 3.283777 0
M  V30 15 N 2.472093 0.502132 0.537522 0
M  V30 16 C 3.842421 0.435893 0.205472 0
M  V30 17 C 4.228039 1.009967 -1.014044 0
M  V30 18 C 5.559482 0.968205 -1.436072 0
M  V30 19 C 6.517964 0.336496 -0.649515 0
M  V30 20 C 6.141103 -0.259535 0.551284 0
M  V30 21 C 4.807705 -0.216370 0.973135 0
M  V30 22 C -0.636412 1.252472 -0.230957 0
M  V30 23 C -0.438072 1.370654 -1.617032 0
M  V30 24 C -0.680341 2.579919 -2.269853 0
M  V30 25 C -1.121531 3.686415 -1.548028 0
M  V30 26 C -1.324938 3.584959 -0.173668 0
M  V30 27 C -1.087033 2.375963 0.481922 0
M  V30 28 H -2.670622 -3.813461 2.282488 0
M  V30 29 H -2.973524 -2.181224 2.911671 0
M  V30 30 H -3.636879 -2.697854 1.346507 0
M  V30 31 H -0.406967 -1.948739 3.104000 0
M  V30 32 H 0.548797 -2.392007 1.652239 0
M  V30 33 H -0.367264 -3.605246 2.491874 0
M  V30 34 H -2.177000 -0.309330 1.647509 0
M  V30 35 H -3.999036 0.590270 0.441048 0
M  V30 36 H -5.500267 0.585759 -1.513672 0
M  V30 37 H -5.031698 -0.891296 -3.449120 0
M  V30 38 H -3.047818 -2.380451 -3.421629 0
M  V30 39 H -1.533771 -2.396831 -1.469572 0
M  V30 40 H 0.234102 -0.709886 -0.203918 0
M  V30 41 H 0.005040 0.194794 2.553443 0
M  V30 42 H 1.890594 0.898015 -0.188976 0
M  V30 43 H 3.499490 1.512586 -1.645327 0
M  V30 44 H 5.846003 1.429686 -2.377290 0
M  V30 45 H 7.554653 0.301438 -0.973473 0
M  V30 46 H 6.882457 -0.768570 1.162104 0
M  V30 47 H 4.552702 -0.732677 1.891577 0
M  V30 48 H -0.110018 0.514089 -2.202773 0
M  V30 49 H -0.532994 2.656172 -3.344107 0
M  V30 50 H -1.311140 4.627587 -2.057487 0
M  V30 51 H -1.668543 4.449162 0.389135 0
M  V30 52 H -1.248199 2.321205 1.555993 0
M  V30 END ATOM
M  V30 BEGIN BOND
M  V30 1 1 1 2
M  V30 2 1 2 3
M  V30 3 1 2 4
M  V30 4 1 4 5
M  V30 5 2 5 6
M  V30 6 1 6 7
M  V30 7 2 7 8
M  V30 8 1 8 9
M  V30 9 2 9 10
M  V30 10 1 4 11
M  V30 11 1 11 12
M  V30 12 1 12 13
M  V30 13 2 13 14
M  V30 14 1 13 15
M  V30 15 1 15 16
M  V30 16 2 16 17
M  V30 17 1 17 18
M  V30 18 2 18 19
M  V30 19 1 19 20
M  V30 20 2 20 21
M  V30 21 1 11 22
M  V30 22 2 22 23
M  V30 23 1 23 24
M  V30 24 2 24 25
M  V30 25 1 25 26
M  V30 26 2 26 27
M  V30 27 1 10 5
M  V30 28 1 21 16
M  V30 29 1 27 22
M  V30 30 1 1 28
M  V30 31 1 1 29
M  V30 32 1 1 30
M  V30 33 1 3 31
M  V30 34 1 3 32
M  V30 35 1 3 33
M  V30 36 1 4 34 CFG=1
M  V30 37 1 6 35
M  V30 38 1 7 36
M  V30 39 1 8 37
M  V30 40 1 9 38
M  V30 41 1 10 39
M  V30 42 1 11 40 CFG=3
M  V30 43 1 12 41
M  V30 44 1 15 42
M  V30 45 1 17 43
M  V30 46 1 18 44
M  V30 47 1 19 45
M  V30 48 1 20 46
M  V30 49 1 21 47
M  V30 50 1 23 48
M  V30 51 1 24 49
M  V30 52 1 25 50
M  V30 53 1 26 51
M  V30 54 1 27 52
M  V30 END BOND
M  V30 END CTAB
M  END
>  <catalyst_id>  (1) 
CVBNXMJWXQGFAR_FGZHOGPDSA_NONE

>  <source_smiles>  (1) 
CN(C)[C@H](c1ccccc1)[C@H](NC(=S)Nc1ccccc1)c1ccccc1

>  <axial_configuration>  (1) 
none

>  <inchikey>  (1) 
CVBNXMJWXQGFAR-FGZHOGPDSA-N

>  <build_source>  (1) 
smiles

>  <rdkit_version>  (1) 
2025.09.6

>  <random_seed>  (1) 
42

>  <generated_at>  (1) 
2026-05-19T12:36:58

$$$$
