catalyst421
     RDKit          3D

  0  0  0  0  0  0  0  0  0  0999 V3000
M  V30 BEGIN CTAB
M  V30 COUNTS 68 73 0 0 0
M  V30 BEGIN ATOM
M  V30 1 C 0.867035 -4.636590 -1.776595 0
M  V30 2 C 1.607071 -3.665324 -1.225412 0
M  V30 3 C 1.352053 -2.916137 0.067286 0 CFG=1
M  V30 4 C 1.615206 -1.395865 -0.101580 0
M  V30 5 N 0.531064 -0.571058 0.647853 0 CFG=2 CHG=1
M  V30 6 C 0.878825 0.956802 0.676450 0
M  V30 7 C 2.263301 1.368575 0.233683 0
M  V30 8 C 3.274492 1.525755 1.209797 0
M  V30 9 C 4.580454 1.877870 0.852239 0
M  V30 10 C 5.597615 2.037097 1.810392 0
M  V30 11 C 6.892056 2.388076 1.423668 0
M  V30 12 C 7.183776 2.584398 0.077479 0
M  V30 13 C 6.180956 2.430184 -0.881068 0
M  V30 14 C 4.873612 2.076601 -0.506997 0
M  V30 15 C 3.847234 1.917164 -1.460740 0
M  V30 16 C 2.520013 1.560998 -1.144203 0
M  V30 17 O 1.631635 1.418045 -2.046995 0 CHG=-1
M  V30 18 C 0.487048 -1.060483 2.094488 0
M  V30 19 C 0.034895 -2.516280 2.142258 0
M  V30 20 C -0.026301 -3.113408 0.734221 0 CFG=1
M  V30 21 C -1.097511 -2.353917 -0.059068 0
M  V30 22 C -0.876361 -0.820034 -0.015959 0 CFG=2
M  V30 23 C -1.154091 -0.133775 -1.411166 0 CFG=1
M  V30 24 O -0.264477 -0.621133 -2.413502 0
M  V30 25 C -2.605644 -0.358430 -1.849412 0
M  V30 26 C -2.889328 -1.299329 -2.849185 0
M  V30 27 C -4.203537 -1.539146 -3.191503 0
M  V30 28 N -5.250765 -0.923765 -2.610540 0
M  V30 29 C -4.999310 0.003225 -1.675719 0
M  V30 30 C -6.084366 0.648909 -1.100837 0
M  V30 31 C -5.933353 1.634043 -0.119914 0
M  V30 32 C -4.661581 1.996906 0.295711 0
M  V30 33 O -4.357564 2.936220 1.240494 0
M  V30 34 C -5.434199 3.739410 1.711659 0
M  V30 35 C -3.556133 1.357232 -0.271036 0
M  V30 36 C -3.693178 0.343073 -1.252576 0
M  V30 37 H -0.049006 -5.010923 -1.334751 0
M  V30 38 H 1.173919 -5.088573 -2.716774 0
M  V30 39 H 2.517265 -3.378604 -1.757193 0
M  V30 40 H 2.113673 -3.298764 0.763079 0
M  V30 41 H 2.583376 -1.166466 0.357030 0
M  V30 42 H 1.637761 -1.101268 -1.146617 0
M  V30 43 H 0.731993 1.291006 1.712460 0
M  V30 44 H 0.110040 1.510959 0.136849 0
M  V30 45 H 3.036220 1.374174 2.259005 0
M  V30 46 H 5.386608 1.892397 2.866538 0
M  V30 47 H 7.669977 2.511429 2.171906 0
M  V30 48 H 8.188324 2.860745 -0.230581 0
M  V30 49 H 6.419482 2.589875 -1.930338 0
M  V30 50 H 4.084549 2.078942 -2.514561 0
M  V30 51 H 1.491145 -0.939479 2.517501 0
M  V30 52 H -0.212008 -0.426392 2.652529 0
M  V30 53 H -0.949710 -2.582673 2.621812 0
M  V30 54 H 0.719980 -3.092237 2.776056 0
M  V30 55 H -0.287334 -4.174833 0.807191 0
M  V30 56 H -2.089019 -2.576623 0.356524 0
M  V30 57 H -1.119585 -2.724248 -1.087987 0
M  V30 58 H -1.580456 -0.400269 0.713328 0
M  V30 59 H -1.024766 0.949367 -1.374708 0
M  V30 60 H 0.455489 0.069596 -2.474993 0
M  V30 61 H -2.096994 -1.841020 -3.358850 0
M  V30 62 H -4.457115 -2.259652 -3.963898 0
M  V30 63 H -7.085487 0.377785 -1.430774 0
M  V30 64 H -6.828795 2.092118 0.286056 0
M  V30 65 H -5.923391 4.271099 0.888598 0
M  V30 66 H -5.018726 4.488505 2.392555 0
M  V30 67 H -6.153161 3.137558 2.276981 0
M  V30 68 H -2.574888 1.690564 0.055011 0
M  V30 END ATOM
M  V30 BEGIN BOND
M  V30 1 2 1 2
M  V30 2 1 2 3
M  V30 3 1 3 4
M  V30 4 1 4 5
M  V30 5 1 5 6 CFG=1
M  V30 6 1 6 7
M  V30 7 2 7 8
M  V30 8 1 8 9
M  V30 9 2 9 10
M  V30 10 1 10 11
M  V30 11 2 11 12
M  V30 12 1 12 13
M  V30 13 2 13 14
M  V30 14 1 14 15
M  V30 15 2 15 16
M  V30 16 1 16 17
M  V30 17 1 5 18
M  V30 18 1 18 19
M  V30 19 1 19 20
M  V30 20 1 20 21
M  V30 21 1 21 22
M  V30 22 1 22 23
M  V30 23 1 23 24
M  V30 24 1 23 25
M  V30 25 2 25 26
M  V30 26 1 26 27
M  V30 27 2 27 28
M  V30 28 1 28 29
M  V30 29 2 29 30
M  V30 30 1 30 31
M  V30 31 2 31 32
M  V30 32 1 32 33
M  V30 33 1 33 34
M  V30 34 1 32 35
M  V30 35 2 35 36
M  V30 36 1 20 3
M  V30 37 1 36 25
M  V30 38 1 22 5
M  V30 39 1 36 29
M  V30 40 1 16 7
M  V30 41 1 14 9
M  V30 42 1 1 37
M  V30 43 1 1 38
M  V30 44 1 2 39
M  V30 45 1 3 40 CFG=1
M  V30 46 1 4 41
M  V30 47 1 4 42
M  V30 48 1 6 43
M  V30 49 1 6 44
M  V30 50 1 8 45
M  V30 51 1 10 46
M  V30 52 1 11 47
M  V30 53 1 12 48
M  V30 54 1 13 49
M  V30 55 1 15 50
M  V30 56 1 18 51
M  V30 57 1 18 52
M  V30 58 1 19 53
M  V30 59 1 19 54
M  V30 60 1 20 55 CFG=1
M  V30 61 1 21 56
M  V30 62 1 21 57
M  V30 63 1 22 58 CFG=1
M  V30 64 1 23 59 CFG=1
M  V30 65 1 24 60
M  V30 66 1 26 61
M  V30 67 1 27 62
M  V30 68 1 30 63
M  V30 69 1 31 64
M  V30 70 1 34 65
M  V30 71 1 34 66
M  V30 72 1 34 67
M  V30 73 1 35 68
M  V30 END BOND
M  V30 END CTAB
M  END
>  <catalyst_id>  (1) 
YUMIGPHENKGDGL_GRMYCVJXSA_NONE

>  <source_smiles>  (1) 
C=C[C@H]1C[N+]2(Cc3cc4ccccc4cc3[O-])CC[C@H]1C[C@@H]2[C@@H](O)c1ccnc2ccc(OC)cc12

>  <axial_configuration>  (1) 
none

>  <inchikey>  (1) 
YUMIGPHENKGDGL-GRMYCVJXSA-N

>  <build_source>  (1) 
smiles

>  <rdkit_version>  (1) 
2025.09.6

>  <random_seed>  (1) 
42

>  <generated_at>  (1) 
2026-05-19T12:32:17

$$$$
