catalyst286
     RDKit          3D

  0  0  0  0  0  0  0  0  0  0999 V3000
M  V30 BEGIN CTAB
M  V30 COUNTS 65 68 0 0 0
M  V30 BEGIN ATOM
M  V30 1 F 4.782706 -5.072859 0.618811 0
M  V30 2 C 5.709062 -4.381042 -0.099819 0
M  V30 3 F 5.822340 -5.023545 -1.293347 0
M  V30 4 F 6.895069 -4.575386 0.543180 0
M  V30 5 C 5.363474 -2.919236 -0.262725 0
M  V30 6 C 4.022487 -2.525150 -0.419785 0
M  V30 7 C 3.679846 -1.183617 -0.592702 0
M  V30 8 N 2.355227 -0.712396 -0.722818 0
M  V30 9 C 1.208729 -1.343010 -1.137418 0
M  V30 10 S 1.056167 -2.778968 -1.975527 0
M  V30 11 N 0.043126 -0.686800 -0.850055 0
M  V30 12 C -0.187527 0.570402 -0.121060 0 CFG=1
M  V30 13 C -0.072375 1.780783 -1.077631 0
M  V30 14 C -0.048424 3.114415 -0.369164 0
M  V30 15 C 1.067653 3.503361 0.385352 0
M  V30 16 C 1.078822 4.729408 1.052396 0
M  V30 17 C -0.022475 5.578777 0.971046 0
M  V30 18 C -1.134505 5.204924 0.219977 0
M  V30 19 C -1.147441 3.980236 -0.448957 0
M  V30 20 C -1.486558 0.531540 0.722360 0
M  V30 21 P -3.093563 0.568662 -0.201314 0
M  V30 22 C -3.210316 -1.121938 -0.864178 0
M  V30 23 C -3.381261 -1.288938 -2.246962 0
M  V30 24 C -3.433649 -2.565537 -2.811120 0
M  V30 25 C -3.319106 -3.691511 -2.000265 0
M  V30 26 C -3.157609 -3.542650 -0.625347 0
M  V30 27 C -3.104507 -2.266427 -0.060402 0
M  V30 28 C -4.351256 0.565727 1.129524 0
M  V30 29 C -5.569774 -0.115796 0.967414 0
M  V30 30 C -6.547376 -0.104905 1.967231 0
M  V30 31 C -6.334178 0.606620 3.142825 0
M  V30 32 C -5.149665 1.316128 3.311826 0
M  V30 33 C -4.172349 1.302946 2.310488 0
M  V30 34 C 4.696904 -0.220314 -0.570255 0
M  V30 35 C 6.046947 -0.585633 -0.434861 0
M  V30 36 C 7.124667 0.471335 -0.414284 0
M  V30 37 F 8.323238 0.023294 -0.878082 0
M  V30 38 F 6.814372 1.560897 -1.170321 0
M  V30 39 F 7.357442 0.941708 0.841282 0
M  V30 40 C 6.369270 -1.941366 -0.282840 0
M  V30 41 H 3.257320 -3.294915 -0.361983 0
M  V30 42 H 2.263325 0.291074 -0.672693 0
M  V30 43 H -0.772726 -1.153474 -1.236298 0
M  V30 44 H 0.626734 0.641699 0.611821 0
M  V30 45 H -0.872765 1.758980 -1.827476 0
M  V30 46 H 0.851779 1.704760 -1.666254 0
M  V30 47 H 1.939630 2.858705 0.459363 0
M  V30 48 H 1.948148 5.024691 1.634568 0
M  V30 49 H -0.012988 6.534107 1.489405 0
M  V30 50 H -1.993125 5.868385 0.152700 0
M  V30 51 H -2.025568 3.708645 -1.031577 0
M  V30 52 H -1.458527 -0.344681 1.380614 0
M  V30 53 H -1.461364 1.404425 1.382776 0
M  V30 54 H -3.469712 -0.425290 -2.903402 0
M  V30 55 H -3.558832 -2.680337 -3.884804 0
M  V30 56 H -3.352906 -4.685082 -2.439865 0
M  V30 57 H -3.068235 -4.420851 0.009072 0
M  V30 58 H -2.980695 -2.181240 1.017012 0
M  V30 59 H -5.781730 -0.667781 0.053574 0
M  V30 60 H -7.476849 -0.648748 1.819852 0
M  V30 61 H -7.094391 0.618783 3.919112 0
M  V30 62 H -4.986031 1.890533 4.220081 0
M  V30 63 H -3.277963 1.897478 2.473631 0
M  V30 64 H 4.450537 0.835127 -0.682072 0
M  V30 65 H 7.413303 -2.239133 -0.169633 0
M  V30 END ATOM
M  V30 BEGIN BOND
M  V30 1 1 1 2
M  V30 2 1 2 3
M  V30 3 1 2 4
M  V30 4 1 2 5
M  V30 5 2 5 6
M  V30 6 1 6 7
M  V30 7 1 7 8
M  V30 8 1 8 9
M  V30 9 2 9 10
M  V30 10 1 9 11
M  V30 11 1 11 12
M  V30 12 1 12 13
M  V30 13 1 13 14
M  V30 14 2 14 15
M  V30 15 1 15 16
M  V30 16 2 16 17
M  V30 17 1 17 18
M  V30 18 2 18 19
M  V30 19 1 12 20
M  V30 20 1 20 21
M  V30 21 1 21 22
M  V30 22 2 22 23
M  V30 23 1 23 24
M  V30 24 2 24 25
M  V30 25 1 25 26
M  V30 26 2 26 27
M  V30 27 1 21 28
M  V30 28 2 28 29
M  V30 29 1 29 30
M  V30 30 2 30 31
M  V30 31 1 31 32
M  V30 32 2 32 33
M  V30 33 2 7 34
M  V30 34 1 34 35
M  V30 35 1 35 36
M  V30 36 1 36 37
M  V30 37 1 36 38
M  V30 38 1 36 39
M  V30 39 2 35 40
M  V30 40 1 40 5
M  V30 41 1 19 14
M  V30 42 1 27 22
M  V30 43 1 33 28
M  V30 44 1 6 41
M  V30 45 1 8 42
M  V30 46 1 11 43
M  V30 47 1 12 44 CFG=1
M  V30 48 1 13 45
M  V30 49 1 13 46
M  V30 50 1 15 47
M  V30 51 1 16 48
M  V30 52 1 17 49
M  V30 53 1 18 50
M  V30 54 1 19 51
M  V30 55 1 20 52
M  V30 56 1 20 53
M  V30 57 1 23 54
M  V30 58 1 24 55
M  V30 59 1 25 56
M  V30 60 1 26 57
M  V30 61 1 27 58
M  V30 62 1 29 59
M  V30 63 1 30 60
M  V30 64 1 31 61
M  V30 65 1 32 62
M  V30 66 1 33 63
M  V30 67 1 34 64
M  V30 68 1 40 65
M  V30 END BOND
M  V30 END CTAB
M  END
>  <catalyst_id>  (1) 
QTTGLTFITODMFT_VWLOTQADSA_NONE

>  <source_smiles>  (1) 
FC(F)(F)c1cc(NC(=S)N[C@@H](Cc2ccccc2)CP(c2ccccc2)c2ccccc2)cc(C(F)(F)F)c1

>  <axial_configuration>  (1) 
none

>  <inchikey>  (1) 
QTTGLTFITODMFT-VWLOTQADSA-N

>  <build_source>  (1) 
smiles

>  <rdkit_version>  (1) 
2025.09.6

>  <random_seed>  (1) 
42

>  <generated_at>  (1) 
2026-05-19T12:33:41

$$$$
