catalyst148
     RDKit          3D

  0  0  0  0  0  0  0  0  0  0999 V3000
M  V30 BEGIN CTAB
M  V30 COUNTS 83 85 0 0 0
M  V30 BEGIN ATOM
M  V30 1 C -3.188914 -4.604424 -2.769724 0
M  V30 2 C -2.970719 -3.096476 -2.615134 0
M  V30 3 C -3.442051 -2.370119 -3.878412 0
M  V30 4 C -1.503813 -2.770004 -2.225983 0 CFG=1
M  V30 5 C -0.486499 -3.001770 -3.366072 0
M  V30 6 O 0.841460 -2.987374 -2.810577 0
M  V30 7 C 1.605132 -1.927770 -3.235880 0
M  V30 8 C 1.897626 -1.745289 -4.587906 0
M  V30 9 C 2.706097 -0.679089 -4.981105 0
M  V30 10 C 3.234819 0.202843 -4.025689 0
M  V30 11 C 4.117920 1.356960 -4.437236 0
M  V30 12 F 3.778664 2.523947 -3.823144 0
M  V30 13 F 4.066381 1.617865 -5.774719 0
M  V30 14 F 5.429783 1.141790 -4.150273 0
M  V30 15 C 2.961148 -0.015694 -2.662383 0
M  V30 16 C 2.160248 -1.085057 -2.257480 0
M  V30 17 N 1.847460 -1.371858 -0.911689 0
M  V30 18 C 2.391485 -0.814782 0.229725 0
M  V30 19 O 3.287156 0.019604 0.237726 0
M  V30 20 N 1.776400 -1.330746 1.360130 0
M  V30 21 C 2.121570 -1.089977 2.705884 0
M  V30 22 C 3.299319 -0.455711 3.105143 0
M  V30 23 C 3.586516 -0.249757 4.465884 0
M  V30 24 C 4.858251 0.458473 4.869084 0
M  V30 25 F 5.216086 0.211942 6.161432 0
M  V30 26 F 4.755016 1.811188 4.764313 0
M  V30 27 F 5.933147 0.099246 4.115186 0
M  V30 28 C 2.664706 -0.682899 5.431409 0
M  V30 29 C 1.478282 -1.326740 5.052322 0
M  V30 30 C 0.490242 -1.817276 6.082844 0
M  V30 31 F 0.707875 -1.306586 7.326550 0
M  V30 32 F 0.520846 -3.170823 6.222927 0
M  V30 33 F -0.796493 -1.500596 5.770519 0
M  V30 34 C 1.225361 -1.533561 3.685986 0
M  V30 35 N -1.402824 -1.370369 -1.748322 0
M  V30 36 C -1.658997 -0.889684 -0.479619 0
M  V30 37 S -1.972136 -1.841959 0.853476 0
M  V30 38 N -1.611644 0.490177 -0.489116 0
M  V30 39 C -1.862335 1.410615 0.645545 0 CFG=1
M  V30 40 C -0.585147 1.643709 1.468262 0
M  V30 41 C 0.462259 2.456130 0.708999 0
M  V30 42 C -0.109500 3.762050 0.166438 0
M  V30 43 C -1.376210 3.522886 -0.654231 0
M  V30 44 C -2.473275 2.774210 0.151142 0 CFG=2
M  V30 45 N -3.020222 3.619588 1.258605 0
M  V30 46 C -4.040269 2.913204 2.045514 0
M  V30 47 C -3.606824 4.873131 0.766295 0
M  V30 48 H -2.644008 -5.011333 -3.626943 0
M  V30 49 H -2.863828 -5.139601 -1.871437 0
M  V30 50 H -4.251631 -4.824343 -2.919546 0
M  V30 51 H -3.623105 -2.766404 -1.796230 0
M  V30 52 H -4.507355 -2.558743 -4.051576 0
M  V30 53 H -3.311636 -1.287386 -3.787090 0
M  V30 54 H -2.900653 -2.708130 -4.767739 0
M  V30 55 H -1.211610 -3.414493 -1.388852 0
M  V30 56 H -0.623882 -2.256157 -4.158961 0
M  V30 57 H -0.620633 -3.992377 -3.810430 0
M  V30 58 H 1.518775 -2.436705 -5.335231 0
M  V30 59 H 2.931815 -0.542244 -6.038189 0
M  V30 60 H 3.390085 0.670224 -1.935129 0
M  V30 61 H 1.257860 -2.186251 -0.791450 0
M  V30 62 H 0.881183 -1.776596 1.202858 0
M  V30 63 H 4.027624 -0.114653 2.372213 0
M  V30 64 H 2.876464 -0.518486 6.489384 0
M  V30 65 H 0.304176 -2.038654 3.396416 0
M  V30 66 H -1.435081 -0.670739 -2.477195 0
M  V30 67 H -1.038282 0.877076 -1.225296 0
M  V30 68 H -2.591800 0.899922 1.277625 0
M  V30 69 H -0.841250 2.173435 2.394196 0
M  V30 70 H -0.147356 0.689655 1.771893 0
M  V30 71 H 0.857580 1.861787 -0.123340 0
M  V30 72 H 1.309702 2.671275 1.369935 0
M  V30 73 H -0.324767 4.443511 0.997913 0
M  V30 74 H 0.643368 4.256056 -0.458493 0
M  V30 75 H -1.743465 4.473781 -1.052636 0
M  V30 76 H -1.115208 2.941273 -1.546982 0
M  V30 77 H -3.294121 2.543288 -0.542721 0
M  V30 78 H -4.496658 3.582104 2.785215 0
M  V30 79 H -4.839505 2.508709 1.414494 0
M  V30 80 H -3.601797 2.102098 2.633625 0
M  V30 81 H -4.074515 5.433197 1.585055 0
M  V30 82 H -4.367156 4.697262 -0.002892 0
M  V30 83 H -2.842715 5.545475 0.366400 0
M  V30 END ATOM
M  V30 BEGIN BOND
M  V30 1 1 1 2
M  V30 2 1 2 3
M  V30 3 1 2 4
M  V30 4 1 4 5
M  V30 5 1 5 6
M  V30 6 1 6 7
M  V30 7 2 7 8
M  V30 8 1 8 9
M  V30 9 2 9 10
M  V30 10 1 10 11
M  V30 11 1 11 12
M  V30 12 1 11 13
M  V30 13 1 11 14
M  V30 14 1 10 15
M  V30 15 2 15 16
M  V30 16 1 16 17
M  V30 17 1 17 18
M  V30 18 2 18 19
M  V30 19 1 18 20
M  V30 20 1 20 21
M  V30 21 2 21 22
M  V30 22 1 22 23
M  V30 23 1 23 24
M  V30 24 1 24 25
M  V30 25 1 24 26
M  V30 26 1 24 27
M  V30 27 2 23 28
M  V30 28 1 28 29
M  V30 29 1 29 30
M  V30 30 1 30 31
M  V30 31 1 30 32
M  V30 32 1 30 33
M  V30 33 2 29 34
M  V30 34 1 4 35
M  V30 35 1 35 36
M  V30 36 2 36 37
M  V30 37 1 36 38
M  V30 38 1 38 39
M  V30 39 1 39 40
M  V30 40 1 40 41
M  V30 41 1 41 42
M  V30 42 1 42 43
M  V30 43 1 43 44
M  V30 44 1 44 45
M  V30 45 1 45 46
M  V30 46 1 45 47
M  V30 47 1 16 7
M  V30 48 1 34 21
M  V30 49 1 44 39
M  V30 50 1 1 48
M  V30 51 1 1 49
M  V30 52 1 1 50
M  V30 53 1 2 51
M  V30 54 1 3 52
M  V30 55 1 3 53
M  V30 56 1 3 54
M  V30 57 1 4 55 CFG=1
M  V30 58 1 5 56
M  V30 59 1 5 57
M  V30 60 1 8 58
M  V30 61 1 9 59
M  V30 62 1 15 60
M  V30 63 1 17 61
M  V30 64 1 20 62
M  V30 65 1 22 63
M  V30 66 1 28 64
M  V30 67 1 34 65
M  V30 68 1 35 66
M  V30 69 1 38 67
M  V30 70 1 39 68 CFG=1
M  V30 71 1 40 69
M  V30 72 1 40 70
M  V30 73 1 41 71
M  V30 74 1 41 72
M  V30 75 1 42 73
M  V30 76 1 42 74
M  V30 77 1 43 75
M  V30 78 1 43 76
M  V30 79 1 44 77 CFG=3
M  V30 80 1 46 78
M  V30 81 1 46 79
M  V30 82 1 46 80
M  V30 83 1 47 81
M  V30 84 1 47 82
M  V30 85 1 47 83
M  V30 END BOND
M  V30 END CTAB
M  END
>  <catalyst_id>  (1) 
KCDKHNJEKLIQLY_QTJGBDASSA_NONE

>  <source_smiles>  (1) 
CC(C)[C@@H](COc1ccc(C(F)(F)F)cc1NC(=O)Nc1cc(C(F)(F)F)cc(C(F)(F)F)c1)NC(=S)N[C@H]1CCCC[C@@H]1N(C)C

>  <axial_configuration>  (1) 
none

>  <inchikey>  (1) 
KCDKHNJEKLIQLY-QTJGBDASSA-N

>  <build_source>  (1) 
smiles

>  <rdkit_version>  (1) 
2025.09.6

>  <random_seed>  (1) 
42

>  <generated_at>  (1) 
2026-05-19T12:32:52

$$$$
