catalyst255
     RDKit          3D

  0  0  0  0  0  0  0  0  0  0999 V3000
M  V30 BEGIN CTAB
M  V30 COUNTS 113 120 0 0 0
M  V30 BEGIN ATOM
M  V30 1 C 5.986093 -4.419829 0.527278 0
M  V30 2 C 4.894511 -3.401802 0.408790 0
M  V30 3 O 4.149946 -3.297072 -0.554682 0
M  V30 4 O 4.879703 -2.596561 1.505349 0
M  V30 5 C 3.850896 -1.596831 1.517092 0
M  V30 6 C 4.166249 -0.367999 0.644002 0 CFG=1
M  V30 7 O 3.017851 0.485542 0.688331 0
M  V30 8 C 3.120706 1.606703 -0.184510 0 CFG=1
M  V30 9 N 1.849197 2.299831 -0.077097 0
M  V30 10 C 0.648927 1.875909 -0.565469 0
M  V30 11 S -0.564489 2.999992 -0.761391 0
M  V30 12 N 0.589228 0.548399 -0.866343 0
M  V30 13 C -0.588573 -0.225873 -1.316304 0 CFG=1
M  V30 14 C -0.116508 -1.381663 -2.201325 0
M  V30 15 C 0.895709 -2.270171 -1.802470 0
M  V30 16 C 1.326194 -3.301274 -2.641693 0
M  V30 17 C 0.760502 -3.459489 -3.902298 0
M  V30 18 C -0.229029 -2.579573 -4.327995 0
M  V30 19 C -0.656871 -1.547035 -3.488787 0
M  V30 20 C -1.582301 -0.583781 -0.107266 0 CFG=2
M  V30 21 C -0.859591 -1.430415 0.957065 0
M  V30 22 C -0.829463 -2.833575 0.890825 0
M  V30 23 C -0.188283 -3.581102 1.879913 0
M  V30 24 C 0.426600 -2.938541 2.952250 0
M  V30 25 C 0.406657 -1.547841 3.033869 0
M  V30 26 C -0.228067 -0.798174 2.042201 0
M  V30 27 N -2.930179 -1.147287 -0.469682 0
M  V30 28 C -3.806504 -1.320440 0.724282 0
M  V30 29 C -4.503413 -0.053896 1.195651 0
M  V30 30 C -4.049070 0.597916 2.345650 0
M  V30 31 C -4.603331 1.816095 2.723631 0
M  V30 32 C -5.589198 2.431869 1.942779 0
M  V30 33 C -6.087189 3.690823 2.319097 0
M  V30 34 C -7.035284 4.351948 1.541369 0
M  V30 35 C -7.490718 3.765659 0.369987 0
M  V30 36 C -7.008714 2.511636 -0.012721 0
M  V30 37 C -6.066465 1.796146 0.767465 0
M  V30 38 C -5.558964 0.503102 0.423625 0
M  V30 39 C -6.029190 -0.268117 -0.768565 0
M  V30 40 C -5.059997 -0.645790 -1.737936 0
M  V30 41 C -5.442059 -1.367027 -2.873243 0
M  V30 42 C -6.771504 -1.733245 -3.056136 0
M  V30 43 C -7.740334 -1.434116 -2.090898 0
M  V30 44 C -9.064188 -1.866337 -2.279861 0
M  V30 45 C -10.042974 -1.630635 -1.317119 0
M  V30 46 C -9.706603 -0.968458 -0.146153 0
M  V30 47 C -8.395682 -0.527650 0.051242 0
M  V30 48 C -7.380122 -0.720234 -0.918791 0
M  V30 49 C -3.590995 -0.320707 -1.510692 0
M  V30 50 C 4.315857 2.499312 0.201767 0 CFG=2
M  V30 51 O 4.554075 3.514956 -0.810101 0
M  V30 52 C 3.829936 4.658883 -0.698993 0
M  V30 53 C 4.208778 5.624825 -1.777505 0
M  V30 54 O 2.975055 4.860569 0.151172 0
M  V30 55 C 5.604010 1.667412 0.295215 0 CFG=1
M  V30 56 O 6.597226 2.528961 0.914962 0
M  V30 57 C 7.876049 2.434258 0.466067 0
M  V30 58 C 8.752254 3.396786 1.206632 0
M  V30 59 O 8.267351 1.670138 -0.404234 0
M  V30 60 C 5.411875 0.391219 1.135775 0 CFG=2
M  V30 61 O 6.561855 -0.467782 0.976960 0
M  V30 62 C 7.524106 -0.392252 1.934700 0
M  V30 63 C 8.632074 -1.352678 1.631401 0
M  V30 64 O 7.493517 0.339093 2.913758 0
M  V30 65 H 5.831881 -5.203325 -0.220112 0
M  V30 66 H 6.953861 -3.943957 0.355143 0
M  V30 67 H 5.958302 -4.886180 1.515696 0
M  V30 68 H 2.892793 -2.041232 1.221328 0
M  V30 69 H 3.715393 -1.284233 2.559363 0
M  V30 70 H 4.327149 -0.704698 -0.387984 0
M  V30 71 H 3.215026 1.261956 -1.222514 0
M  V30 72 H 1.879506 3.299756 0.125129 0
M  V30 73 H 1.280087 -0.001777 -0.370216 0
M  V30 74 H -1.127674 0.463290 -1.975584 0
M  V30 75 H 1.371664 -2.177746 -0.829800 0
M  V30 76 H 2.111533 -3.974490 -2.305707 0
M  V30 77 H 1.097936 -4.260418 -4.553881 0
M  V30 78 H -0.664246 -2.689503 -5.317654 0
M  V30 79 H -1.410923 -0.860308 -3.864333 0
M  V30 80 H -1.794793 0.377513 0.380127 0
M  V30 81 H -1.316479 -3.349505 0.064147 0
M  V30 82 H -0.177538 -4.665896 1.813691 0
M  V30 83 H 0.917528 -3.522721 3.725921 0
M  V30 84 H 0.882889 -1.044323 3.871114 0
M  V30 85 H -0.233547 0.287630 2.124250 0
M  V30 86 H -3.275421 -1.773629 1.568138 0
M  V30 87 H -4.564258 -2.083205 0.496897 0
M  V30 88 H -3.247194 0.168542 2.941990 0
M  V30 89 H -4.227623 2.303086 3.621180 0
M  V30 90 H -5.726186 4.176642 3.223325 0
M  V30 91 H -7.404102 5.328032 1.843889 0
M  V30 92 H -8.217051 4.279796 -0.253648 0
M  V30 93 H -7.378033 2.095992 -0.948147 0
M  V30 94 H -4.702928 -1.662187 -3.614273 0
M  V30 95 H -7.038976 -2.291936 -3.950700 0
M  V30 96 H -9.342447 -2.406343 -3.182607 0
M  V30 97 H -11.060372 -1.976426 -1.477155 0
M  V30 98 H -10.457260 -0.793827 0.619965 0
M  V30 99 H -8.171403 -0.028772 0.991996 0
M  V30 100 H -3.497955 0.753657 -1.299794 0
M  V30 101 H -3.079421 -0.473805 -2.463204 0
M  V30 102 H 4.145795 2.979736 1.175608 0
M  V30 103 H 3.656179 6.558303 -1.638045 0
M  V30 104 H 3.952983 5.207233 -2.754344 0
M  V30 105 H 5.277974 5.844119 -1.720190 0
M  V30 106 H 5.934793 1.406288 -0.719042 0
M  V30 107 H 8.390866 4.417355 1.057325 0
M  V30 108 H 8.764614 3.143941 2.269692 0
M  V30 109 H 9.772770 3.329530 0.818993 0
M  V30 110 H 5.270795 0.669937 2.188458 0
M  V30 111 H 9.500269 -1.109604 2.250537 0
M  V30 112 H 8.306661 -2.371473 1.852373 0
M  V30 113 H 8.929445 -1.263550 0.583144 0
M  V30 END ATOM
M  V30 BEGIN BOND
M  V30 1 1 1 2
M  V30 2 2 2 3
M  V30 3 1 2 4
M  V30 4 1 4 5
M  V30 5 1 5 6
M  V30 6 1 6 7
M  V30 7 1 7 8
M  V30 8 1 8 9
M  V30 9 1 9 10
M  V30 10 2 10 11
M  V30 11 1 10 12
M  V30 12 1 12 13
M  V30 13 1 13 14
M  V30 14 2 14 15
M  V30 15 1 15 16
M  V30 16 2 16 17
M  V30 17 1 17 18
M  V30 18 2 18 19
M  V30 19 1 13 20
M  V30 20 1 20 21
M  V30 21 2 21 22
M  V30 22 1 22 23
M  V30 23 2 23 24
M  V30 24 1 24 25
M  V30 25 2 25 26
M  V30 26 1 20 27
M  V30 27 1 27 28
M  V30 28 1 28 29
M  V30 29 2 29 30
M  V30 30 1 30 31
M  V30 31 2 31 32
M  V30 32 1 32 33
M  V30 33 2 33 34
M  V30 34 1 34 35
M  V30 35 2 35 36
M  V30 36 1 36 37
M  V30 37 2 37 38
M  V30 38 1 38 39
M  V30 39 2 39 40
M  V30 40 1 40 41
M  V30 41 2 41 42
M  V30 42 1 42 43
M  V30 43 2 43 44
M  V30 44 1 44 45
M  V30 45 2 45 46
M  V30 46 1 46 47
M  V30 47 2 47 48
M  V30 48 1 40 49
M  V30 49 1 8 50
M  V30 50 1 50 51
M  V30 51 1 51 52
M  V30 52 1 52 53
M  V30 53 2 52 54
M  V30 54 1 50 55
M  V30 55 1 55 56
M  V30 56 1 56 57
M  V30 57 1 57 58
M  V30 58 2 57 59
M  V30 59 1 55 60
M  V30 60 1 60 61
M  V30 61 1 61 62
M  V30 62 1 62 63
M  V30 63 2 62 64
M  V30 64 1 60 6
M  V30 65 1 19 14
M  V30 66 1 26 21
M  V30 67 1 49 27
M  V30 68 1 38 29
M  V30 69 1 48 39
M  V30 70 1 37 32
M  V30 71 1 48 43
M  V30 72 1 1 65
M  V30 73 1 1 66
M  V30 74 1 1 67
M  V30 75 1 5 68
M  V30 76 1 5 69
M  V30 77 1 6 70 CFG=3
M  V30 78 1 8 71 CFG=3
M  V30 79 1 9 72
M  V30 80 1 12 73
M  V30 81 1 13 74 CFG=3
M  V30 82 1 15 75
M  V30 83 1 16 76
M  V30 84 1 17 77
M  V30 85 1 18 78
M  V30 86 1 19 79
M  V30 87 1 20 80 CFG=1
M  V30 88 1 22 81
M  V30 89 1 23 82
M  V30 90 1 24 83
M  V30 91 1 25 84
M  V30 92 1 26 85
M  V30 93 1 28 86
M  V30 94 1 28 87
M  V30 95 1 30 88
M  V30 96 1 31 89
M  V30 97 1 33 90
M  V30 98 1 34 91
M  V30 99 1 35 92
M  V30 100 1 36 93
M  V30 101 1 41 94
M  V30 102 1 42 95
M  V30 103 1 44 96
M  V30 104 1 45 97
M  V30 105 1 46 98
M  V30 106 1 47 99
M  V30 107 1 49 100
M  V30 108 1 49 101
M  V30 109 1 50 102 CFG=1
M  V30 110 1 53 103
M  V30 111 1 53 104
M  V30 112 1 53 105
M  V30 113 1 55 106 CFG=3
M  V30 114 1 58 107
M  V30 115 1 58 108
M  V30 116 1 58 109
M  V30 117 1 60 110 CFG=1
M  V30 118 1 63 111
M  V30 119 1 63 112
M  V30 120 1 63 113
M  V30 END BOND
M  V30 END CTAB
M  END
>  <catalyst_id>  (1) 
PHTKELPBNVPHQU_BAYZXUAWSA_R

>  <source_smiles>  (1) 
CC(=O)OC[C@H]1O[C@@H](NC(=S)N[C@@H](c2ccccc2)[C@H](c2ccccc2)N2Cc3ccc4ccccc4c3-c3c(ccc4ccccc34)C2)[C@H](OC(C)=O)[C@@H](OC(C)=O)[C@@H]1OC(C)=O

>  <axial_configuration>  (1) 
R

>  <inchikey>  (1) 
PHTKELPBNVPHQU-BAYZXUAWSA-N

>  <build_source>  (1) 
smiles+axial_bridged

>  <final_biaryl_angle_deg>  (1) 
121.85

>  <n_valid_conformers>  (1) 
12

>  <rdkit_version>  (1) 
2025.09.6

>  <random_seed>  (1) 
42

>  <generated_at>  (1) 
2026-05-19T12:38:37

$$$$
