catalyst285
     RDKit          3D

  0  0  0  0  0  0  0  0  0  0999 V3000
M  V30 BEGIN CTAB
M  V30 COUNTS 55 57 0 0 0
M  V30 BEGIN ATOM
M  V30 1 C -3.450404 -0.031374 1.868390 0
M  V30 2 C -3.462492 -0.873405 0.573655 0
M  V30 3 C -2.194036 -1.737771 0.553586 0
M  V30 4 C -4.678342 -1.826433 0.655406 0
M  V30 5 C -3.610367 0.063553 -0.672156 0 CFG=2
M  V30 6 N -3.661448 -0.627457 -1.982606 0
M  V30 7 C -2.648459 1.292458 -0.695143 0
M  V30 8 O -3.094959 2.370397 -0.272717 0
M  V30 9 N -1.324319 1.196838 -1.126260 0
M  V30 10 C -0.564661 2.451498 -1.107104 0
M  V30 11 C 0.957993 2.301820 -1.247538 0 CFG=2
M  V30 12 C 1.269572 1.426116 -2.456033 0
M  V30 13 C 0.684665 0.047131 -2.170811 0 CFG=1
M  V30 14 C 1.354892 -0.544299 -0.912063 0
M  V30 15 N 1.210142 0.318292 0.260063 0
M  V30 16 C 1.728667 -0.254279 1.506025 0
M  V30 17 C 3.225468 -0.467137 1.587410 0
M  V30 18 C 4.065145 0.539691 2.086945 0
M  V30 19 C 5.444964 0.342237 2.163919 0
M  V30 20 C 6.001449 -0.864780 1.745936 0
M  V30 21 C 5.179320 -1.875800 1.252761 0
M  V30 22 C 3.799374 -1.679292 1.175394 0
M  V30 23 C 1.616251 1.701706 0.013208 0
M  V30 24 C -0.846538 0.151278 -2.038373 0
M  V30 25 H -2.561130 0.605416 1.928320 0
M  V30 26 H -4.334529 0.613093 1.929193 0
M  V30 27 H -3.447132 -0.672124 2.757939 0
M  V30 28 H -2.150497 -2.374648 -0.335675 0
M  V30 29 H -1.292805 -1.122071 0.589318 0
M  V30 30 H -2.157427 -2.401867 1.425552 0
M  V30 31 H -5.620740 -1.267333 0.657185 0
M  V30 32 H -4.702168 -2.527884 -0.185174 0
M  V30 33 H -4.650349 -2.425872 1.573016 0
M  V30 34 H -4.605820 0.526561 -0.584252 0
M  V30 35 H -3.892627 0.068856 -2.693028 0
M  V30 36 H -4.441266 -1.282685 -1.979687 0
M  V30 37 H -0.792736 3.003356 -0.187034 0
M  V30 38 H -0.944593 3.056208 -1.941397 0
M  V30 39 H 1.385478 3.299599 -1.407588 0
M  V30 40 H 0.835131 1.852039 -3.368407 0
M  V30 41 H 2.352675 1.360343 -2.615367 0
M  V30 42 H 0.908363 -0.618244 -3.014192 0
M  V30 43 H 0.912804 -1.527334 -0.708992 0
M  V30 44 H 2.415477 -0.708987 -1.139318 0
M  V30 45 H 1.415348 0.377562 2.348258 0
M  V30 46 H 1.225935 -1.212439 1.695789 0
M  V30 47 H 3.644855 1.486120 2.419697 0
M  V30 48 H 6.085038 1.130375 2.551567 0
M  V30 49 H 7.075536 -1.018311 1.806757 0
M  V30 50 H 5.612222 -2.818710 0.929346 0
M  V30 51 H 3.170050 -2.478725 0.790994 0
M  V30 52 H 2.704215 1.765380 -0.112434 0
M  V30 53 H 1.353444 2.325608 0.876328 0
M  V30 54 H -1.235054 -0.822257 -1.745515 0
M  V30 55 H -1.269573 0.387990 -3.023093 0
M  V30 END ATOM
M  V30 BEGIN BOND
M  V30 1 1 1 2
M  V30 2 1 2 3
M  V30 3 1 2 4
M  V30 4 1 2 5
M  V30 5 1 5 6
M  V30 6 1 5 7
M  V30 7 2 7 8
M  V30 8 1 7 9
M  V30 9 1 9 10
M  V30 10 1 10 11
M  V30 11 1 11 12
M  V30 12 1 12 13
M  V30 13 1 13 14
M  V30 14 1 14 15
M  V30 15 1 15 16
M  V30 16 1 16 17
M  V30 17 2 17 18
M  V30 18 1 18 19
M  V30 19 2 19 20
M  V30 20 1 20 21
M  V30 21 2 21 22
M  V30 22 1 15 23
M  V30 23 1 13 24
M  V30 24 1 24 9
M  V30 25 1 23 11
M  V30 26 1 22 17
M  V30 27 1 1 25
M  V30 28 1 1 26
M  V30 29 1 1 27
M  V30 30 1 3 28
M  V30 31 1 3 29
M  V30 32 1 3 30
M  V30 33 1 4 31
M  V30 34 1 4 32
M  V30 35 1 4 33
M  V30 36 1 5 34 CFG=1
M  V30 37 1 6 35
M  V30 38 1 6 36
M  V30 39 1 10 37
M  V30 40 1 10 38
M  V30 41 1 11 39 CFG=3
M  V30 42 1 12 40
M  V30 43 1 12 41
M  V30 44 1 13 42 CFG=3
M  V30 45 1 14 43
M  V30 46 1 14 44
M  V30 47 1 16 45
M  V30 48 1 16 46
M  V30 49 1 18 47
M  V30 50 1 19 48
M  V30 51 1 20 49
M  V30 52 1 21 50
M  V30 53 1 22 51
M  V30 54 1 23 52
M  V30 55 1 23 53
M  V30 56 1 24 54
M  V30 57 1 24 55
M  V30 END BOND
M  V30 END CTAB
M  END
>  <catalyst_id>  (1) 
QRVKKJNQGVIUQO_DAWZGUTISA_NONE

>  <source_smiles>  (1) 
CC(C)(C)[C@H](N)C(=O)N1CC2CC(CN(Cc3ccccc3)C2)C1

>  <axial_configuration>  (1) 
none

>  <inchikey>  (1) 
QRVKKJNQGVIUQO-DAWZGUTISA-N

>  <build_source>  (1) 
smiles

>  <rdkit_version>  (1) 
2025.09.6

>  <random_seed>  (1) 
42

>  <generated_at>  (1) 
2026-05-19T12:37:17

$$$$
