catalyst279
     RDKit          3D

  0  0  0  0  0  0  0  0  0  0999 V3000
M  V30 BEGIN CTAB
M  V30 COUNTS 13 12 0 0 0
M  V30 BEGIN ATOM
M  V30 1 C -1.222875 -0.774922 0.167514 0
M  V30 2 C -0.296365 0.328357 -0.324614 0 CFG=1
M  V30 3 N -0.549652 1.560523 0.456277 0
M  V30 4 C 1.171742 -0.089573 -0.192506 0
M  V30 5 O 2.034472 0.488797 0.451865 0
M  V30 6 O 1.480146 -1.188885 -0.907990 0
M  V30 7 H -1.105145 -1.682321 -0.434755 0
M  V30 8 H -2.272495 -0.468124 0.101798 0
M  V30 9 H -1.008784 -1.044453 1.208201 0
M  V30 10 H -0.490424 0.549758 -1.379500 0
M  V30 11 H 0.131990 2.264658 0.163736 0
M  V30 12 H -0.310169 1.376456 1.433012 0
M  V30 13 H 2.437559 -1.320271 -0.743038 0
M  V30 END ATOM
M  V30 BEGIN BOND
M  V30 1 1 1 2
M  V30 2 1 2 3
M  V30 3 1 2 4
M  V30 4 2 4 5
M  V30 5 1 4 6
M  V30 6 1 1 7
M  V30 7 1 1 8
M  V30 8 1 1 9
M  V30 9 1 2 10 CFG=3
M  V30 10 1 3 11
M  V30 11 1 3 12
M  V30 12 1 6 13
M  V30 END BOND
M  V30 END CTAB
M  END
>  <catalyst_id>  (1) 
QNAYBMKLOCPYGJ_UWTATZPHSA_NONE

>  <source_smiles>  (1) 
C[C@@H](N)C(=O)O

>  <axial_configuration>  (1) 
none

>  <inchikey>  (1) 
QNAYBMKLOCPYGJ-UWTATZPHSA-N

>  <build_source>  (1) 
smiles

>  <rdkit_version>  (1) 
2025.09.6

>  <random_seed>  (1) 
42

>  <generated_at>  (1) 
2026-05-19T12:30:08

$$$$
