catalyst125
     RDKit          3D

  0  0  0  0  0  0  0  0  0  0999 V3000
M  V30 BEGIN CTAB
M  V30 COUNTS 17 17 0 0 0
M  V30 BEGIN ATOM
M  V30 1 O 2.204613 -0.536528 -1.259424 0
M  V30 2 C 1.787556 0.051957 -0.276748 0
M  V30 3 O 2.541787 1.000628 0.315172 0
M  V30 4 C 0.471856 -0.152008 0.427514 0 CFG=2
M  V30 5 C -0.358205 -1.296826 -0.157937 0
M  V30 6 C -1.526814 -0.608663 -0.839472 0
M  V30 7 N -1.746747 0.564598 0.002477 0
M  V30 8 C -0.404763 1.086122 0.272593 0
M  V30 9 H 3.365514 1.016520 -0.216898 0
M  V30 10 H 0.683318 -0.373533 1.480815 0
M  V30 11 H -0.730686 -1.926072 0.660845 0
M  V30 12 H 0.186773 -1.947240 -0.848309 0
M  V30 13 H -2.412779 -1.248303 -0.881443 0
M  V30 14 H -1.262585 -0.307193 -1.859932 0
M  V30 15 H -2.314477 1.258108 -0.482715 0
M  V30 16 H -0.406840 1.692480 1.183834 0
M  V30 17 H -0.077522 1.725951 -0.556265 0
M  V30 END ATOM
M  V30 BEGIN BOND
M  V30 1 2 1 2
M  V30 2 1 2 3
M  V30 3 1 2 4
M  V30 4 1 4 5
M  V30 5 1 5 6
M  V30 6 1 6 7
M  V30 7 1 7 8
M  V30 8 1 8 4
M  V30 9 1 3 9
M  V30 10 1 4 10 CFG=1
M  V30 11 1 5 11
M  V30 12 1 5 12
M  V30 13 1 6 13
M  V30 14 1 6 14
M  V30 15 1 7 15
M  V30 16 1 8 16
M  V30 17 1 8 17
M  V30 END BOND
M  V30 END CTAB
M  END
>  <catalyst_id>  (1) 
JAEIBKXSIXOLOL_SCSAIBSYSA_NONE

>  <source_smiles>  (1) 
O=C(O)[C@@H]1CCNC1

>  <axial_configuration>  (1) 
none

>  <inchikey>  (1) 
JAEIBKXSIXOLOL-SCSAIBSYSA-N

>  <build_source>  (1) 
smiles

>  <rdkit_version>  (1) 
2025.09.6

>  <random_seed>  (1) 
42

>  <generated_at>  (1) 
2026-05-19T12:37:16

$$$$
