catalyst159
     RDKit          3D

  0  0  0  0  0  0  0  0  0  0999 V3000
M  V30 BEGIN CTAB
M  V30 COUNTS 39 39 0 0 0
M  V30 BEGIN ATOM
M  V30 1 C -3.980903 0.653476 -0.294121 0
M  V30 2 C -2.670625 0.333993 -1.039106 0
M  V30 3 C -2.740831 -1.079151 -1.653758 0
M  V30 4 C -2.424594 1.375853 -2.149728 0
M  V30 5 Si -1.080616 0.397846 0.294881 0 VAL=4
M  V30 6 C -1.423734 -0.871269 1.632542 0
M  V30 7 C -1.037857 2.120882 1.033564 0
M  V30 8 O 0.317565 0.052804 -0.564328 0
M  V30 9 C 1.549096 -0.145047 0.118718 0 CFG=1
M  V30 10 C 1.852141 -1.627341 0.392907 0
M  V30 11 N 3.204978 -1.903812 -0.113344 0
M  V30 12 C 3.849260 -0.588443 -0.343229 0 CFG=2
M  V30 13 C 4.524139 -0.058096 0.927211 0
M  V30 14 O 4.741729 1.109961 1.205095 0
M  V30 15 O 4.917556 -1.038724 1.772506 0
M  V30 16 C 2.695621 0.289431 -0.787493 0
M  V30 17 H -4.833860 0.625337 -0.981842 0
M  V30 18 H -4.178342 -0.069969 0.504442 0
M  V30 19 H -3.955576 1.651022 0.157943 0
M  V30 20 H -1.811154 -1.338744 -2.172941 0
M  V30 21 H -3.556925 -1.145196 -2.382309 0
M  V30 22 H -2.919672 -1.843043 -0.888931 0
M  V30 23 H -3.235254 1.355661 -2.887022 0
M  V30 24 H -1.486878 1.181859 -2.682885 0
M  V30 25 H -2.373350 2.392556 -1.744586 0
M  V30 26 H -0.630762 -0.858630 2.386227 0
M  V30 27 H -1.474772 -1.878771 1.210008 0
M  V30 28 H -2.371232 -0.661197 2.136751 0
M  V30 29 H -1.976155 2.349978 1.546649 0
M  V30 30 H -0.877602 2.873713 0.256545 0
M  V30 31 H -0.225079 2.206358 1.760954 0
M  V30 32 H 1.601941 0.432313 1.053017 0
M  V30 33 H 1.810534 -1.819866 1.471100 0
M  V30 34 H 1.133494 -2.295053 -0.093079 0
M  V30 35 H 3.749537 -2.416151 0.586100 0
M  V30 36 H 4.620796 -0.673431 -1.114733 0
M  V30 37 H 5.356382 -0.555821 2.504546 0
M  V30 38 H 2.447728 0.102939 -1.840623 0
M  V30 39 H 2.893274 1.361774 -0.686266 0
M  V30 END ATOM
M  V30 BEGIN BOND
M  V30 1 1 1 2
M  V30 2 1 2 3
M  V30 3 1 2 4
M  V30 4 1 2 5
M  V30 5 1 5 6
M  V30 6 1 5 7
M  V30 7 1 5 8
M  V30 8 1 8 9
M  V30 9 1 9 10
M  V30 10 1 10 11
M  V30 11 1 11 12
M  V30 12 1 12 13
M  V30 13 2 13 14
M  V30 14 1 13 15
M  V30 15 1 12 16
M  V30 16 1 16 9
M  V30 17 1 1 17
M  V30 18 1 1 18
M  V30 19 1 1 19
M  V30 20 1 3 20
M  V30 21 1 3 21
M  V30 22 1 3 22
M  V30 23 1 4 23
M  V30 24 1 4 24
M  V30 25 1 4 25
M  V30 26 1 6 26
M  V30 27 1 6 27
M  V30 28 1 6 28
M  V30 29 1 7 29
M  V30 30 1 7 30
M  V30 31 1 7 31
M  V30 32 1 9 32 CFG=1
M  V30 33 1 10 33
M  V30 34 1 10 34
M  V30 35 1 11 35
M  V30 36 1 12 36 CFG=3
M  V30 37 1 15 37
M  V30 38 1 16 38
M  V30 39 1 16 39
M  V30 END BOND
M  V30 END CTAB
M  END
>  <catalyst_id>  (1) 
KOSGBSIXUJNSHZ_BDAKNGLRSA_NONE

>  <source_smiles>  (1) 
CC(C)(C)[Si](C)(C)O[C@H]1CN[C@H](C(=O)O)C1

>  <axial_configuration>  (1) 
none

>  <inchikey>  (1) 
KOSGBSIXUJNSHZ-BDAKNGLRSA-N

>  <build_source>  (1) 
smiles

>  <rdkit_version>  (1) 
2025.09.6

>  <random_seed>  (1) 
42

>  <generated_at>  (1) 
2026-05-19T12:29:57

$$$$
