catalyst274
     RDKit          3D

  0  0  0  0  0  0  0  0  0  0999 V3000
M  V30 BEGIN CTAB
M  V30 COUNTS 120 129 0 0 0
M  V30 BEGIN ATOM
M  V30 1 O -3.076274 -2.409710 -2.243499 0
M  V30 2 C -3.434810 -1.353699 -1.781185 0
M  V30 3 C -2.862845 -0.186216 -1.063827 0
M  V30 4 N -1.629462 0.075418 -0.676707 0
M  V30 5 C -0.570758 -0.958379 -0.573874 0 CFG=2
M  V30 6 C -0.777094 -1.785629 0.697420 0
M  V30 7 C -0.875940 -3.186521 0.559911 0
M  V30 8 C -1.062449 -3.999889 1.670350 0
M  V30 9 C -1.150745 -3.424946 2.931591 0
M  V30 10 C -1.056041 -2.033473 3.086665 0
M  V30 11 C -1.141572 -1.452053 4.358853 0
M  V30 12 C -1.040479 -0.075994 4.504260 0
M  V30 13 C -0.862287 0.678308 3.365127 0
M  V30 14 N -0.783847 0.154371 2.118042 0
M  V30 15 C -0.870735 -1.189912 1.966642 0
M  V30 16 C 0.885300 -0.339562 -0.674669 0 CFG=2
M  V30 17 N 1.091278 0.813070 0.242287 0
M  V30 18 C 2.289810 1.215942 0.628638 0
M  V30 19 C 3.607959 1.114396 0.253525 0
M  V30 20 N 4.292828 0.544725 -0.718757 0
M  V30 21 C 5.760334 0.394830 -0.733424 0 CFG=2
M  V30 22 C 6.248222 0.564237 -2.182998 0
M  V30 23 C 5.934100 -0.631415 -3.076062 0
M  V30 24 C 6.430576 -1.942079 -2.484845 0
M  V30 25 C 5.931641 -2.154850 -1.061002 0
M  V30 26 C 6.157847 -0.974598 -0.086119 0 CFG=1
M  V30 27 N 7.485164 -1.077811 0.583433 0
M  V30 28 C 8.624308 -0.518313 -0.150629 0
M  V30 29 C 9.945565 -0.827776 0.559496 0
M  V30 30 C 9.942072 -0.299620 1.987733 0
M  V30 31 C 8.707297 -0.793487 2.728614 0
M  V30 32 C 7.428279 -0.499404 1.942140 0
M  V30 33 C 4.054318 1.918610 1.422372 0
M  V30 34 O 5.075324 2.324066 1.923284 0
M  V30 35 C 2.632206 2.038142 1.816372 0
M  V30 36 O 2.074594 2.579883 2.740139 0
M  V30 37 C 1.167235 0.054243 -2.126364 0
M  V30 38 C 0.861692 1.345231 -2.601166 0
M  V30 39 C 1.086664 1.687019 -3.929408 0
M  V30 40 C 1.606874 0.739037 -4.802202 0
M  V30 41 C 1.900524 -0.555894 -4.348536 0
M  V30 42 C 2.416807 -1.524350 -5.219662 0
M  V30 43 C 2.698606 -2.799878 -4.750501 0
M  V30 44 C 2.453958 -3.064355 -3.419131 0
M  V30 45 N 1.960369 -2.154981 -2.549119 0
M  V30 46 C 1.680305 -0.913758 -2.998774 0
M  V30 47 C -4.088479 0.425687 -0.974237 0
M  V30 48 N -4.557615 1.547518 -0.463932 0
M  V30 49 C -5.991812 1.838013 -0.267162 0 CFG=2
M  V30 50 C -6.214014 3.338906 -0.523004 0
M  V30 51 C -5.693635 4.232654 0.599673 0
M  V30 52 C -6.229398 3.822965 1.964261 0
M  V30 53 C -5.980294 2.348675 2.257225 0
M  V30 54 C -6.440565 1.364212 1.157254 0 CFG=1
M  V30 55 N -7.865383 0.987891 1.342883 0
M  V30 56 C -8.091371 -0.419510 0.949349 0
M  V30 57 C -9.560330 -0.778695 0.688303 0
M  V30 58 C -10.492092 0.039253 1.567050 0
M  V30 59 C -10.258432 1.536105 1.360021 0
M  V30 60 C -8.879583 1.862326 0.767655 0
M  V30 61 C -4.756647 -0.690343 -1.692984 0
M  V30 62 O -5.858081 -1.013275 -2.067051 0
M  V30 63 H -1.468790 0.820278 0.003894 0
M  V30 64 H -0.682585 -1.633577 -1.432638 0
M  V30 65 H -0.814590 -3.648416 -0.425512 0
M  V30 66 H -1.140676 -5.077713 1.551546 0
M  V30 67 H -1.295726 -4.069839 3.795676 0
M  V30 68 H -1.282203 -2.069103 5.243167 0
M  V30 69 H -1.093995 0.393121 5.480079 0
M  V30 70 H -0.763032 1.759878 3.422509 0
M  V30 71 H 1.596883 -1.117381 -0.364967 0
M  V30 72 H 0.347515 0.835186 0.955408 0
M  V30 73 H 3.813265 -0.060446 -1.386364 0
M  V30 74 H 6.194962 1.215153 -0.151363 0
M  V30 75 H 5.798072 1.463068 -2.623681 0
M  V30 76 H 7.329421 0.734702 -2.196127 0
M  V30 77 H 4.853986 -0.693523 -3.241550 0
M  V30 78 H 6.388132 -0.480124 -4.062271 0
M  V30 79 H 7.522519 -1.978611 -2.520655 0
M  V30 80 H 6.084388 -2.771855 -3.113011 0
M  V30 81 H 4.850980 -2.348204 -1.110858 0
M  V30 82 H 6.370650 -3.074458 -0.653384 0
M  V30 83 H 5.423763 -1.171943 0.709354 0
M  V30 84 H 8.530515 0.568777 -0.259117 0
M  V30 85 H 8.695353 -0.947251 -1.150929 0
M  V30 86 H 10.113628 -1.912271 0.568293 0
M  V30 87 H 10.777288 -0.380226 0.003526 0
M  V30 88 H 9.946620 0.797175 1.972967 0
M  V30 89 H 10.849737 -0.619229 2.511080 0
M  V30 90 H 8.791457 -1.874343 2.899337 0
M  V30 91 H 8.652994 -0.317868 3.714462 0
M  V30 92 H 7.263765 0.583986 1.898233 0
M  V30 93 H 6.593541 -0.934079 2.505423 0
M  V30 94 H 0.440644 2.087927 -1.926070 0
M  V30 95 H 0.851102 2.687838 -4.281815 0
M  V30 96 H 1.776279 1.014444 -5.840633 0
M  V30 97 H 2.598502 -1.289773 -6.265594 0
M  V30 98 H 3.095748 -3.565351 -5.407154 0
M  V30 99 H 2.654989 -4.045702 -2.998130 0
M  V30 100 H -3.938492 2.139428 0.088729 0
M  V30 101 H -6.561938 1.293338 -1.028786 0
M  V30 102 H -5.727364 3.631813 -1.462246 0
M  V30 103 H -7.280564 3.538476 -0.667406 0
M  V30 104 H -4.597546 4.205732 0.617092 0
M  V30 105 H -5.972496 5.273002 0.395501 0
M  V30 106 H -7.295527 4.055061 2.035330 0
M  V30 107 H -5.740938 4.428999 2.736947 0
M  V30 108 H -4.899497 2.212912 2.403201 0
M  V30 109 H -6.437726 2.084571 3.219328 0
M  V30 110 H -5.870725 0.450057 1.384437 0
M  V30 111 H -7.712626 -1.058202 1.756905 0
M  V30 112 H -7.525494 -0.677757 0.046912 0
M  V30 113 H -9.716839 -1.849106 0.862767 0
M  V30 114 H -9.802502 -0.589799 -0.365406 0
M  V30 115 H -10.310946 -0.214382 2.619200 0
M  V30 116 H -11.538468 -0.210807 1.359951 0
M  V30 117 H -11.028976 1.939070 0.691445 0
M  V30 118 H -10.384687 2.048013 2.322259 0
M  V30 119 H -8.689665 2.913851 0.985756 0
M  V30 120 H -8.911073 1.763280 -0.324782 0
M  V30 END ATOM
M  V30 BEGIN BOND
M  V30 1 2 1 2
M  V30 2 1 2 3
M  V30 3 1 3 4
M  V30 4 1 4 5
M  V30 5 1 5 6
M  V30 6 2 6 7
M  V30 7 1 7 8
M  V30 8 2 8 9
M  V30 9 1 9 10
M  V30 10 2 10 11
M  V30 11 1 11 12
M  V30 12 2 12 13
M  V30 13 1 13 14
M  V30 14 2 14 15
M  V30 15 1 5 16
M  V30 16 1 16 17
M  V30 17 1 17 18
M  V30 18 2 18 19
M  V30 19 1 19 20
M  V30 20 1 20 21
M  V30 21 1 21 22
M  V30 22 1 22 23
M  V30 23 1 23 24
M  V30 24 1 24 25
M  V30 25 1 25 26
M  V30 26 1 26 27
M  V30 27 1 27 28
M  V30 28 1 28 29
M  V30 29 1 29 30
M  V30 30 1 30 31
M  V30 31 1 31 32
M  V30 32 1 19 33
M  V30 33 2 33 34
M  V30 34 1 33 35
M  V30 35 2 35 36
M  V30 36 1 16 37
M  V30 37 2 37 38
M  V30 38 1 38 39
M  V30 39 2 39 40
M  V30 40 1 40 41
M  V30 41 2 41 42
M  V30 42 1 42 43
M  V30 43 2 43 44
M  V30 44 1 44 45
M  V30 45 2 45 46
M  V30 46 2 3 47
M  V30 47 1 47 48
M  V30 48 1 48 49
M  V30 49 1 49 50
M  V30 50 1 50 51
M  V30 51 1 51 52
M  V30 52 1 52 53
M  V30 53 1 53 54
M  V30 54 1 54 55
M  V30 55 1 55 56
M  V30 56 1 56 57
M  V30 57 1 57 58
M  V30 58 1 58 59
M  V30 59 1 59 60
M  V30 60 1 47 61
M  V30 61 2 61 62
M  V30 62 1 61 2
M  V30 63 1 15 6
M  V30 64 1 35 18
M  V30 65 1 46 37
M  V30 66 1 54 49
M  V30 67 1 60 55
M  V30 68 1 15 10
M  V30 69 1 26 21
M  V30 70 1 32 27
M  V30 71 1 46 41
M  V30 72 1 4 63
M  V30 73 1 5 64 CFG=3
M  V30 74 1 7 65
M  V30 75 1 8 66
M  V30 76 1 9 67
M  V30 77 1 11 68
M  V30 78 1 12 69
M  V30 79 1 13 70
M  V30 80 1 16 71 CFG=1
M  V30 81 1 17 72
M  V30 82 1 20 73
M  V30 83 1 21 74 CFG=1
M  V30 84 1 22 75
M  V30 85 1 22 76
M  V30 86 1 23 77
M  V30 87 1 23 78
M  V30 88 1 24 79
M  V30 89 1 24 80
M  V30 90 1 25 81
M  V30 91 1 25 82
M  V30 92 1 26 83 CFG=1
M  V30 93 1 28 84
M  V30 94 1 28 85
M  V30 95 1 29 86
M  V30 96 1 29 87
M  V30 97 1 30 88
M  V30 98 1 30 89
M  V30 99 1 31 90
M  V30 100 1 31 91
M  V30 101 1 32 92
M  V30 102 1 32 93
M  V30 103 1 38 94
M  V30 104 1 39 95
M  V30 105 1 40 96
M  V30 106 1 42 97
M  V30 107 1 43 98
M  V30 108 1 44 99
M  V30 109 1 48 100
M  V30 110 1 49 101 CFG=3
M  V30 111 1 50 102
M  V30 112 1 50 103
M  V30 113 1 51 104
M  V30 114 1 51 105
M  V30 115 1 52 106
M  V30 116 1 52 107
M  V30 117 1 53 108
M  V30 118 1 53 109
M  V30 119 1 54 110 CFG=1
M  V30 120 1 56 111
M  V30 121 1 56 112
M  V30 122 1 57 113
M  V30 123 1 57 114
M  V30 124 1 58 115
M  V30 125 1 58 116
M  V30 126 1 59 117
M  V30 127 1 59 118
M  V30 128 1 60 119
M  V30 129 1 60 120
M  V30 END BOND
M  V30 END CTAB
M  END
>  <catalyst_id>  (1) 
QHSHHKVRLRHZRJ_WNVKKBDVSA_NONE

>  <source_smiles>  (1) 
O=c1c(N[C@H](c2cccc3cccnc23)[C@H](Nc2c(N[C@@H]3CCCC[C@H]3N3CCCCC3)c(=O)c2=O)c2cccc3cccnc23)c(N[C@@H]2CCCC[C@H]2N2CCCCC2)c1=O

>  <axial_configuration>  (1) 
none

>  <inchikey>  (1) 
QHSHHKVRLRHZRJ-WNVKKBDVSA-N

>  <build_source>  (1) 
smiles

>  <rdkit_version>  (1) 
2025.09.6

>  <random_seed>  (1) 
42

>  <generated_at>  (1) 
2026-05-19T12:39:45

$$$$
