catalyst190
     RDKit          3D

  0  0  0  0  0  0  0  0  0  0999 V3000
M  V30 BEGIN CTAB
M  V30 COUNTS 83 85 0 0 0
M  V30 BEGIN ATOM
M  V30 1 C -4.762331 3.602558 2.691894 0
M  V30 2 C -4.436720 3.585228 1.229279 0
M  V30 3 O -3.591116 4.295034 0.705806 0
M  V30 4 O -5.225076 2.674517 0.596032 0
M  V30 5 C -5.001162 2.495079 -0.814895 0
M  V30 6 C -4.179520 1.221739 -1.079532 0 CFG=1
M  V30 7 O -2.848471 1.428806 -0.595612 0
M  V30 8 C -1.982641 0.353576 -0.941582 0 CFG=1
M  V30 9 N -0.665436 0.806920 -0.546964 0
M  V30 10 C 0.535916 0.556048 -1.172963 0
M  V30 11 S 0.702532 -0.243348 -2.631110 0
M  V30 12 N 1.579082 1.039265 -0.408895 0
M  V30 13 C 3.022012 1.022691 -0.739141 0 CFG=1
M  V30 14 C 3.408056 2.275699 -1.542925 0
M  V30 15 C 3.367474 3.548914 -0.699697 0
M  V30 16 C 4.184258 3.413762 0.580555 0
M  V30 17 C 3.775055 2.178517 1.381318 0
M  V30 18 C 3.900533 0.866735 0.555416 0 CFG=2
M  V30 19 N 5.343039 0.533837 0.335358 0
M  V30 20 C 6.056186 0.312609 1.605952 0
M  V30 21 C 7.192273 -0.715861 1.671951 0
M  V30 22 C 6.698094 -2.161451 1.654267 0
M  V30 23 C 6.314712 -2.680094 0.275440 0
M  V30 24 C 5.221838 -1.882820 -0.427627 0
M  V30 25 C 5.629403 -0.438466 -0.719122 0
M  V30 26 C -2.437835 -0.913460 -0.190389 0 CFG=2
M  V30 27 O -1.611471 -2.051666 -0.517626 0
M  V30 28 C -0.590091 -2.306751 0.346035 0
M  V30 29 C 0.182363 -3.507018 -0.108698 0
M  V30 30 O -0.348005 -1.677481 1.366752 0
M  V30 31 C -3.883329 -1.245669 -0.598910 0 CFG=1
M  V30 32 O -4.316909 -2.327253 0.267774 0
M  V30 33 C -5.140520 -3.263865 -0.270842 0
M  V30 34 C -5.472755 -4.304826 0.753110 0
M  V30 35 O -5.564349 -3.260044 -1.417704 0
M  V30 36 C -4.807142 -0.021619 -0.420861 0 CFG=2
M  V30 37 O -6.078229 -0.251213 -1.069372 0
M  V30 38 C -7.093275 -0.718552 -0.293565 0
M  V30 39 C -8.326828 -0.905283 -1.122069 0
M  V30 40 O -7.019837 -0.958615 0.902623 0
M  V30 41 H -4.588193 2.612836 3.121748 0
M  V30 42 H -5.801419 3.908410 2.836829 0
M  V30 43 H -4.112277 4.320889 3.199609 0
M  V30 44 H -5.987963 2.413073 -1.282848 0
M  V30 45 H -4.507260 3.368923 -1.255042 0
M  V30 46 H -4.140712 1.091039 -2.169706 0
M  V30 47 H -2.003782 0.195806 -2.024921 0
M  V30 48 H -0.638001 1.211519 0.375875 0
M  V30 49 H 1.309187 1.694637 0.309469 0
M  V30 50 H 3.165391 0.143719 -1.369960 0
M  V30 51 H 4.420879 2.153869 -1.945316 0
M  V30 52 H 2.743274 2.399518 -2.405598 0
M  V30 53 H 3.746610 4.391311 -1.289540 0
M  V30 54 H 2.327929 3.788367 -0.444668 0
M  V30 55 H 4.045648 4.310173 1.195855 0
M  V30 56 H 5.251323 3.363400 0.333450 0
M  V30 57 H 2.739853 2.300550 1.722683 0
M  V30 58 H 4.364358 2.136249 2.303552 0
M  V30 59 H 3.454302 0.055169 1.147177 0
M  V30 60 H 5.348217 0.043883 2.401535 0
M  V30 61 H 6.486674 1.279550 1.895666 0
M  V30 62 H 7.713394 -0.559563 2.625929 0
M  V30 63 H 7.942095 -0.539465 0.892646 0
M  V30 64 H 7.499679 -2.803025 2.041497 0
M  V30 65 H 5.852302 -2.278833 2.342628 0
M  V30 66 H 5.979153 -3.719714 0.375212 0
M  V30 67 H 7.208520 -2.707862 -0.360694 0
M  V30 68 H 5.013516 -2.377759 -1.384903 0
M  V30 69 H 4.287605 -1.930066 0.143195 0
M  V30 70 H 5.165058 -0.121967 -1.658082 0
M  V30 71 H 6.697496 -0.395363 -0.968922 0
M  V30 72 H -2.434282 -0.735464 0.894155 0
M  V30 73 H -0.401105 -4.411590 0.077902 0
M  V30 74 H 1.122926 -3.562919 0.446763 0
M  V30 75 H 0.422613 -3.421155 -1.171366 0
M  V30 76 H -3.893371 -1.589322 -1.641735 0
M  V30 77 H -6.006998 -3.845591 1.588493 0
M  V30 78 H -6.116712 -5.064723 0.301325 0
M  V30 79 H -4.556388 -4.788402 1.100802 0
M  V30 80 H -4.943383 0.157793 0.653417 0
M  V30 81 H -9.134127 -1.284729 -0.489196 0
M  V30 82 H -8.134827 -1.632630 -1.914749 0
M  V30 83 H -8.636978 0.053283 -1.545475 0
M  V30 END ATOM
M  V30 BEGIN BOND
M  V30 1 1 1 2
M  V30 2 2 2 3
M  V30 3 1 2 4
M  V30 4 1 4 5
M  V30 5 1 5 6
M  V30 6 1 6 7
M  V30 7 1 7 8
M  V30 8 1 8 9
M  V30 9 1 9 10
M  V30 10 2 10 11
M  V30 11 1 10 12
M  V30 12 1 12 13
M  V30 13 1 13 14
M  V30 14 1 14 15
M  V30 15 1 15 16
M  V30 16 1 16 17
M  V30 17 1 17 18
M  V30 18 1 18 19
M  V30 19 1 19 20
M  V30 20 1 20 21
M  V30 21 1 21 22
M  V30 22 1 22 23
M  V30 23 1 23 24
M  V30 24 1 24 25
M  V30 25 1 8 26
M  V30 26 1 26 27
M  V30 27 1 27 28
M  V30 28 1 28 29
M  V30 29 2 28 30
M  V30 30 1 26 31
M  V30 31 1 31 32
M  V30 32 1 32 33
M  V30 33 1 33 34
M  V30 34 2 33 35
M  V30 35 1 31 36
M  V30 36 1 36 37
M  V30 37 1 37 38
M  V30 38 1 38 39
M  V30 39 2 38 40
M  V30 40 1 36 6
M  V30 41 1 18 13
M  V30 42 1 25 19
M  V30 43 1 1 41
M  V30 44 1 1 42
M  V30 45 1 1 43
M  V30 46 1 5 44
M  V30 47 1 5 45
M  V30 48 1 6 46 CFG=3
M  V30 49 1 8 47 CFG=3
M  V30 50 1 9 48
M  V30 51 1 12 49
M  V30 52 1 13 50 CFG=3
M  V30 53 1 14 51
M  V30 54 1 14 52
M  V30 55 1 15 53
M  V30 56 1 15 54
M  V30 57 1 16 55
M  V30 58 1 16 56
M  V30 59 1 17 57
M  V30 60 1 17 58
M  V30 61 1 18 59 CFG=1
M  V30 62 1 20 60
M  V30 63 1 20 61
M  V30 64 1 21 62
M  V30 65 1 21 63
M  V30 66 1 22 64
M  V30 67 1 22 65
M  V30 68 1 23 66
M  V30 69 1 23 67
M  V30 70 1 24 68
M  V30 71 1 24 69
M  V30 72 1 25 70
M  V30 73 1 25 71
M  V30 74 1 26 72 CFG=1
M  V30 75 1 29 73
M  V30 76 1 29 74
M  V30 77 1 29 75
M  V30 78 1 31 76 CFG=3
M  V30 79 1 34 77
M  V30 80 1 34 78
M  V30 81 1 34 79
M  V30 82 1 36 80 CFG=1
M  V30 83 1 39 81
M  V30 84 1 39 82
M  V30 85 1 39 83
M  V30 END BOND
M  V30 END CTAB
M  END
>  <catalyst_id>  (1) 
LWYLXXZSYGJUHV_XPLJPDESSA_NONE

>  <source_smiles>  (1) 
CC(=O)OC[C@H]1O[C@@H](NC(=S)N[C@H]2CCCC[C@@H]2N2CCCCCC2)[C@H](OC(C)=O)[C@@H](OC(C)=O)[C@@H]1OC(C)=O

>  <axial_configuration>  (1) 
none

>  <inchikey>  (1) 
LWYLXXZSYGJUHV-XPLJPDESSA-N

>  <build_source>  (1) 
smiles

>  <rdkit_version>  (1) 
2025.09.6

>  <random_seed>  (1) 
42

>  <generated_at>  (1) 
2026-05-19T12:33:18

$$$$
