catalyst165
     RDKit          3D

  0  0  0  0  0  0  0  0  0  0999 V3000
M  V30 BEGIN CTAB
M  V30 COUNTS 19 18 0 0 0
M  V30 BEGIN ATOM
M  V30 1 C -1.292281 1.077156 -0.086255 0
M  V30 2 C -0.553877 -0.183360 -0.551179 0
M  V30 3 C -1.492051 -1.392390 -0.469902 0
M  V30 4 C 0.764398 -0.442314 0.214656 0 CFG=2
M  V30 5 N 0.549530 -0.610590 1.672090 0
M  V30 6 C 1.795317 0.668360 -0.037231 0
M  V30 7 O 2.307193 1.386102 0.809495 0
M  V30 8 O 2.146585 0.787975 -1.332379 0
M  V30 9 H -0.650960 1.961495 -0.153758 0
M  V30 10 H -1.643942 0.986608 0.946543 0
M  V30 11 H -2.169304 1.259610 -0.717164 0
M  V30 12 H -0.308785 -0.038166 -1.611736 0
M  V30 13 H -0.990496 -2.298148 -0.826662 0
M  V30 14 H -1.834947 -1.572647 0.554268 0
M  V30 15 H -2.377699 -1.235396 -1.095160 0
M  V30 16 H 1.219473 -1.372633 -0.147554 0
M  V30 17 H 0.264166 0.291720 2.059202 0
M  V30 18 H 1.458543 -0.783920 2.107012 0
M  V30 19 H 2.809136 1.510540 -1.334286 0
M  V30 END ATOM
M  V30 BEGIN BOND
M  V30 1 1 1 2
M  V30 2 1 2 3
M  V30 3 1 2 4
M  V30 4 1 4 5
M  V30 5 1 4 6
M  V30 6 2 6 7
M  V30 7 1 6 8
M  V30 8 1 1 9
M  V30 9 1 1 10
M  V30 10 1 1 11
M  V30 11 1 2 12
M  V30 12 1 3 13
M  V30 13 1 3 14
M  V30 14 1 3 15
M  V30 15 1 4 16 CFG=3
M  V30 16 1 5 17
M  V30 17 1 5 18
M  V30 18 1 8 19
M  V30 END BOND
M  V30 END CTAB
M  END
>  <catalyst_id>  (1) 
KZSNJWFQEVHDMF_BYPYZUCNSA_NONE

>  <source_smiles>  (1) 
CC(C)[C@H](N)C(=O)O

>  <axial_configuration>  (1) 
none

>  <inchikey>  (1) 
KZSNJWFQEVHDMF-BYPYZUCNSA-N

>  <build_source>  (1) 
smiles

>  <rdkit_version>  (1) 
2025.09.6

>  <random_seed>  (1) 
42

>  <generated_at>  (1) 
2026-05-19T12:30:03

$$$$
