catalyst113
     RDKit          3D

  0  0  0  0  0  0  0  0  0  0999 V3000
M  V30 BEGIN CTAB
M  V30 COUNTS 45 48 0 0 0
M  V30 BEGIN ATOM
M  V30 1 C -3.584026 -1.254249 2.636704 0
M  V30 2 C -2.657770 -0.762643 1.803392 0
M  V30 3 C -2.949709 -0.309674 0.392019 0 CFG=1
M  V30 4 C -2.531409 1.165720 0.158396 0
M  V30 5 N -1.808656 1.349661 -1.129346 0
M  V30 6 C -2.642936 0.767720 -2.209459 0
M  V30 7 C -2.799390 -0.754130 -2.048274 0
M  V30 8 C -2.245917 -1.182967 -0.676220 0 CFG=1
M  V30 9 C -0.735534 -0.876725 -0.676679 0
M  V30 10 C -0.506449 0.596156 -1.094240 0 CFG=2
M  V30 11 C 0.593595 1.307101 -0.219343 0 CFG=2
M  V30 12 N 0.601845 2.763598 -0.476043 0
M  V30 13 C 1.983960 0.708062 -0.408469 0
M  V30 14 C 2.587997 0.794443 -1.673796 0
M  V30 15 C 3.829694 0.226526 -1.869594 0
M  V30 16 N 4.511886 -0.423764 -0.911665 0
M  V30 17 C 3.961905 -0.507403 0.308502 0
M  V30 18 C 4.689356 -1.175107 1.284159 0
M  V30 19 C 4.219044 -1.323776 2.588153 0
M  V30 20 C 2.988889 -0.789342 2.932282 0
M  V30 21 C 2.236628 -0.113943 1.969547 0
M  V30 22 C 2.695787 0.042211 0.634946 0
M  V30 23 H -3.317695 -1.563022 3.643350 0
M  V30 24 H -4.622789 -1.363798 2.340406 0
M  V30 25 H -1.634179 -0.677379 2.162466 0
M  V30 26 H -4.033556 -0.383209 0.220758 0
M  V30 27 H -3.431633 1.794809 0.147927 0
M  V30 28 H -1.929506 1.557773 0.986545 0
M  V30 29 H -3.628423 1.250579 -2.216192 0
M  V30 30 H -2.199467 0.995536 -3.186632 0
M  V30 31 H -2.260321 -1.275513 -2.848515 0
M  V30 32 H -3.856689 -1.030367 -2.135962 0
M  V30 33 H -2.424458 -2.250400 -0.505648 0
M  V30 34 H -0.227890 -1.537449 -1.390715 0
M  V30 35 H -0.307860 -1.092140 0.307491 0
M  V30 36 H -0.132537 0.593908 -2.128212 0
M  V30 37 H 0.285334 1.215565 0.822664 0
M  V30 38 H 0.862677 2.924443 -1.446353 0
M  V30 39 H -0.383702 3.049006 -0.453789 0
M  V30 40 H 2.103961 1.299024 -2.502988 0
M  V30 41 H 4.323956 0.278799 -2.835313 0
M  V30 42 H 5.658587 -1.591923 1.018729 0
M  V30 43 H 4.818157 -1.849982 3.326025 0
M  V30 44 H 2.613070 -0.889542 3.947258 0
M  V30 45 H 1.286176 0.297806 2.293450 0
M  V30 END ATOM
M  V30 BEGIN BOND
M  V30 1 2 1 2
M  V30 2 1 2 3
M  V30 3 1 3 4
M  V30 4 1 4 5
M  V30 5 1 5 6
M  V30 6 1 6 7
M  V30 7 1 7 8
M  V30 8 1 8 9
M  V30 9 1 9 10
M  V30 10 1 10 11
M  V30 11 1 11 12
M  V30 12 1 11 13
M  V30 13 2 13 14
M  V30 14 1 14 15
M  V30 15 2 15 16
M  V30 16 1 16 17
M  V30 17 2 17 18
M  V30 18 1 18 19
M  V30 19 2 19 20
M  V30 20 1 20 21
M  V30 21 2 21 22
M  V30 22 1 8 3
M  V30 23 1 22 13
M  V30 24 1 10 5
M  V30 25 1 22 17
M  V30 26 1 1 23
M  V30 27 1 1 24
M  V30 28 1 2 25
M  V30 29 1 3 26 CFG=3
M  V30 30 1 4 27
M  V30 31 1 4 28
M  V30 32 1 6 29
M  V30 33 1 6 30
M  V30 34 1 7 31
M  V30 35 1 7 32
M  V30 36 1 8 33 CFG=1
M  V30 37 1 9 34
M  V30 38 1 9 35
M  V30 39 1 10 36 CFG=3
M  V30 40 1 11 37 CFG=1
M  V30 41 1 12 38
M  V30 42 1 12 39
M  V30 43 1 14 40
M  V30 44 1 15 41
M  V30 45 1 18 42
M  V30 46 1 19 43
M  V30 47 1 20 44
M  V30 48 1 21 45
M  V30 END BOND
M  V30 END CTAB
M  END
>  <catalyst_id>  (1) 
ILZIKKYERYJBJZ_YXUGBTPSSA_NONE

>  <source_smiles>  (1) 
C=C[C@H]1CN2CC[C@H]1C[C@@H]2[C@H](N)c1ccnc2ccccc12

>  <axial_configuration>  (1) 
none

>  <inchikey>  (1) 
ILZIKKYERYJBJZ-YXUGBTPSSA-N

>  <build_source>  (1) 
smiles

>  <rdkit_version>  (1) 
2025.09.6

>  <random_seed>  (1) 
42

>  <generated_at>  (1) 
2026-05-19T12:34:17

$$$$
