catalyst44
     RDKit          3D

  0  0  0  0  0  0  0  0  0  0999 V3000
M  V30 BEGIN CTAB
M  V30 COUNTS 70 76 0 0 0
M  V30 BEGIN ATOM
M  V30 1 O -0.609744 2.758472 0.204728 0
M  V30 2 P -0.014885 1.545947 -0.441519 0
M  V30 3 O 0.720752 1.949188 -1.814173 0
M  V30 4 O 1.118552 0.797727 0.420654 0
M  V30 5 C 1.537980 -0.458842 0.039750 0
M  V30 6 C 2.891340 -0.576850 -0.325122 0
M  V30 7 C 3.799323 0.576608 -0.335801 0
M  V30 8 C 4.568430 0.894799 0.792779 0
M  V30 9 C 5.431286 2.002856 0.796524 0
M  V30 10 C 6.231876 2.342630 2.031263 0
M  V30 11 F 5.561150 3.178664 2.868998 0
M  V30 12 F 6.560657 1.248630 2.772801 0
M  V30 13 F 7.409897 2.963596 1.744429 0
M  V30 14 C 5.503797 2.811713 -0.349579 0
M  V30 15 C 4.746385 2.512974 -1.492505 0
M  V30 16 C 4.797944 3.384132 -2.724142 0
M  V30 17 F 5.102335 2.681072 -3.849524 0
M  V30 18 F 3.607689 3.997626 -2.974374 0
M  V30 19 F 5.722666 4.380772 -2.645229 0
M  V30 20 C 3.905751 1.388979 -1.473475 0
M  V30 21 C 3.370966 -1.836118 -0.684121 0
M  V30 22 C 2.529981 -2.951005 -0.715291 0
M  V30 23 C 3.050010 -4.186096 -1.138681 0
M  V30 24 C 2.239359 -5.312878 -1.237279 0
M  V30 25 C 0.893339 -5.212891 -0.926808 0
M  V30 26 C 0.367831 -3.991110 -0.497023 0
M  V30 27 C 1.164542 -2.827312 -0.340877 0
M  V30 28 C 0.645871 -1.560015 0.115549 0
M  V30 29 C -0.696792 -1.388285 0.636946 0
M  V30 30 C -1.554648 -0.409592 0.078988 0
M  V30 31 C -2.908132 -0.262657 0.425965 0
M  V30 32 C -3.776354 0.729571 -0.219078 0
M  V30 33 C -4.562392 0.376824 -1.326179 0
M  V30 34 C -5.385387 1.318273 -1.964834 0
M  V30 35 C -6.235123 0.911559 -3.144939 0
M  V30 36 F -7.441112 0.410358 -2.762288 0
M  V30 37 F -6.508291 1.946427 -3.987149 0
M  V30 38 F -5.654839 -0.050627 -3.914196 0
M  V30 39 C -5.427670 2.630257 -1.466923 0
M  V30 40 C -4.657779 3.007041 -0.354618 0
M  V30 41 C -4.683284 4.430236 0.151375 0
M  V30 42 F -4.382223 4.540049 1.474197 0
M  V30 43 F -3.803804 5.230875 -0.509428 0
M  V30 44 F -5.905020 5.016243 0.001315 0
M  V30 45 C -3.834494 2.048210 0.255810 0
M  V30 46 C -3.426068 -1.099717 1.413788 0
M  V30 47 C -2.620534 -2.036025 2.068323 0
M  V30 48 C -3.176708 -2.816967 3.095709 0
M  V30 49 C -2.400681 -3.724805 3.810315 0
M  V30 50 C -1.053407 -3.851698 3.514241 0
M  V30 51 C -0.491542 -3.085586 2.489279 0
M  V30 52 C -1.252945 -2.178986 1.708098 0
M  V30 53 O -1.069281 0.421784 -0.905376 0
M  V30 54 H 0.431711 2.840338 -2.087507 0
M  V30 55 H 4.488259 0.273868 1.686112 0
M  V30 56 H 6.157308 3.686025 -0.348043 0
M  V30 57 H 3.307672 1.153832 -2.355640 0
M  V30 58 H 4.417306 -1.938674 -0.970661 0
M  V30 59 H 4.099782 -4.279055 -1.411776 0
M  V30 60 H 2.655847 -6.258863 -1.572637 0
M  V30 61 H 0.243512 -6.079141 -1.021707 0
M  V30 62 H -0.701314 -3.960819 -0.294124 0
M  V30 63 H -4.524896 -0.645941 -1.703968 0
M  V30 64 H -6.066891 3.370240 -1.952281 0
M  V30 65 H -3.220555 2.338447 1.110664 0
M  V30 66 H -4.473839 -0.996458 1.695142 0
M  V30 67 H -4.227549 -2.713804 3.360922 0
M  V30 68 H -2.844834 -4.316170 4.606508 0
M  V30 69 H -0.430859 -4.540175 4.080053 0
M  V30 70 H 0.576908 -3.202634 2.316100 0
M  V30 END ATOM
M  V30 BEGIN BOND
M  V30 1 2 1 2
M  V30 2 1 2 3
M  V30 3 1 2 4
M  V30 4 1 4 5
M  V30 5 2 5 6
M  V30 6 1 6 7
M  V30 7 2 7 8
M  V30 8 1 8 9
M  V30 9 1 9 10
M  V30 10 1 10 11
M  V30 11 1 10 12
M  V30 12 1 10 13
M  V30 13 2 9 14
M  V30 14 1 14 15
M  V30 15 1 15 16
M  V30 16 1 16 17
M  V30 17 1 16 18
M  V30 18 1 16 19
M  V30 19 2 15 20
M  V30 20 1 6 21
M  V30 21 2 21 22
M  V30 22 1 22 23
M  V30 23 2 23 24
M  V30 24 1 24 25
M  V30 25 2 25 26
M  V30 26 1 26 27
M  V30 27 2 27 28
M  V30 28 1 28 29
M  V30 29 2 29 30
M  V30 30 1 30 31
M  V30 31 1 31 32
M  V30 32 2 32 33
M  V30 33 1 33 34
M  V30 34 1 34 35
M  V30 35 1 35 36
M  V30 36 1 35 37
M  V30 37 1 35 38
M  V30 38 2 34 39
M  V30 39 1 39 40
M  V30 40 1 40 41
M  V30 41 1 41 42
M  V30 42 1 41 43
M  V30 43 1 41 44
M  V30 44 2 40 45
M  V30 45 2 31 46
M  V30 46 1 46 47
M  V30 47 2 47 48
M  V30 48 1 48 49
M  V30 49 2 49 50
M  V30 50 1 50 51
M  V30 51 2 51 52
M  V30 52 1 30 53
M  V30 53 1 53 2
M  V30 54 1 28 5
M  V30 55 1 52 29
M  V30 56 1 20 7
M  V30 57 1 27 22
M  V30 58 1 45 32
M  V30 59 1 52 47
M  V30 60 1 3 54
M  V30 61 1 8 55
M  V30 62 1 14 56
M  V30 63 1 20 57
M  V30 64 1 21 58
M  V30 65 1 23 59
M  V30 66 1 24 60
M  V30 67 1 25 61
M  V30 68 1 26 62
M  V30 69 1 33 63
M  V30 70 1 39 64
M  V30 71 1 45 65
M  V30 72 1 46 66
M  V30 73 1 48 67
M  V30 74 1 49 68
M  V30 75 1 50 69
M  V30 76 1 51 70
M  V30 END BOND
M  V30 END CTAB
M  END
>  <catalyst_id>  (1) 
DQORDVSQWPKAQJ_UHFFFAOYSA_R

>  <source_smiles>  (1) 
O=P1(O)Oc2c(-c3cc(C(F)(F)F)cc(C(F)(F)F)c3)cc3ccccc3c2-c2c(c(-c3cc(C(F)(F)F)cc(C(F)(F)F)c3)cc3ccccc23)O1

>  <axial_configuration>  (1) 
R

>  <inchikey>  (1) 
DQORDVSQWPKAQJ-UHFFFAOYSA-N

>  <build_source>  (1) 
smiles+axial_free

>  <final_biaryl_angle_deg>  (1) 
92.22

>  <rdkit_version>  (1) 
2025.09.6

>  <random_seed>  (1) 
42

>  <generated_at>  (1) 
2026-05-19T12:30:01

$$$$
