catalyst357
     RDKit          3D

  0  0  0  0  0  0  0  0  0  0999 V3000
M  V30 BEGIN CTAB
M  V30 COUNTS 51 52 0 0 0
M  V30 BEGIN ATOM
M  V30 1 C -4.447636 -0.828089 1.117871 0
M  V30 2 C -3.059885 -1.247871 0.624371 0
M  V30 3 C -3.167334 -2.655188 0.014525 0
M  V30 4 C -2.457813 -0.243360 -0.396545 0 CFG=1
M  V30 5 C -2.505474 1.271303 -0.000289 0
M  V30 6 N -1.447163 1.759330 0.923664 0
M  V30 7 C -1.698810 1.381875 2.315166 0
M  V30 8 C -1.379489 3.226204 0.839207 0
M  V30 9 N -1.047012 -0.588331 -0.645019 0
M  V30 10 C -0.565890 -1.103170 -1.756845 0
M  V30 11 C 0.662373 -1.421972 -2.288953 0
M  V30 12 N 1.950841 -1.391734 -2.017294 0
M  V30 13 C 2.661600 -0.653341 -1.047856 0
M  V30 14 C 2.188857 0.539166 -0.489901 0
M  V30 15 C 2.923687 1.229518 0.490393 0
M  V30 16 C 2.412572 2.530012 1.062462 0
M  V30 17 F 3.420538 3.364692 1.446787 0
M  V30 18 F 1.659847 3.248975 0.185465 0
M  V30 19 F 1.645558 2.345904 2.170747 0
M  V30 20 C 4.133395 0.683434 0.946641 0
M  V30 21 C 4.617813 -0.523412 0.425471 0
M  V30 22 C 5.929319 -1.099549 0.901105 0
M  V30 23 F 5.970268 -2.459104 0.835288 0
M  V30 24 F 6.983319 -0.655952 0.163650 0
M  V30 25 F 6.213610 -0.780347 2.193980 0
M  V30 26 C 3.877007 -1.172764 -0.575063 0
M  V30 27 C 0.041964 -2.005783 -3.502234 0
M  V30 28 O 0.391755 -2.564480 -4.512185 0
M  V30 29 C -1.275568 -1.609248 -2.963082 0
M  V30 30 O -2.397652 -1.706661 -3.396600 0
M  V30 31 H -4.889684 -1.606610 1.749480 0
M  V30 32 H -4.400927 0.080157 1.724694 0
M  V30 33 H -5.128601 -0.648586 0.279093 0
M  V30 34 H -2.400873 -1.341041 1.493231 0
M  V30 35 H -3.611897 -3.355491 0.730304 0
M  V30 36 H -3.792694 -2.651747 -0.884579 0
M  V30 37 H -2.183491 -3.052447 -0.252368 0
M  V30 38 H -3.040524 -0.324995 -1.323090 0
M  V30 39 H -2.362755 1.804648 -0.952151 0
M  V30 40 H -3.503433 1.564715 0.344637 0
M  V30 41 H -0.955508 1.839256 2.978971 0
M  V30 42 H -1.590501 0.306434 2.459954 0
M  V30 43 H -2.692536 1.690563 2.657849 0
M  V30 44 H -2.332222 3.698519 1.105584 0
M  V30 45 H -1.106530 3.541168 -0.174165 0
M  V30 46 H -0.604009 3.620000 1.505271 0
M  V30 47 H -0.441986 -0.194680 0.080703 0
M  V30 48 H 2.589159 -1.909825 -2.624649 0
M  V30 49 H 1.258132 0.976371 -0.848401 0
M  V30 50 H 4.705249 1.207234 1.714871 0
M  V30 51 H 4.251033 -2.113700 -0.979174 0
M  V30 END ATOM
M  V30 BEGIN BOND
M  V30 1 1 1 2
M  V30 2 1 2 3
M  V30 3 1 2 4
M  V30 4 1 4 5
M  V30 5 1 5 6
M  V30 6 1 6 7
M  V30 7 1 6 8
M  V30 8 1 4 9
M  V30 9 1 9 10
M  V30 10 2 10 11
M  V30 11 1 11 12
M  V30 12 1 12 13
M  V30 13 2 13 14
M  V30 14 1 14 15
M  V30 15 1 15 16
M  V30 16 1 16 17
M  V30 17 1 16 18
M  V30 18 1 16 19
M  V30 19 2 15 20
M  V30 20 1 20 21
M  V30 21 1 21 22
M  V30 22 1 22 23
M  V30 23 1 22 24
M  V30 24 1 22 25
M  V30 25 2 21 26
M  V30 26 1 11 27
M  V30 27 2 27 28
M  V30 28 1 27 29
M  V30 29 2 29 30
M  V30 30 1 29 10
M  V30 31 1 26 13
M  V30 32 1 1 31
M  V30 33 1 1 32
M  V30 34 1 1 33
M  V30 35 1 2 34
M  V30 36 1 3 35
M  V30 37 1 3 36
M  V30 38 1 3 37
M  V30 39 1 4 38 CFG=3
M  V30 40 1 5 39
M  V30 41 1 5 40
M  V30 42 1 7 41
M  V30 43 1 7 42
M  V30 44 1 7 43
M  V30 45 1 8 44
M  V30 46 1 8 45
M  V30 47 1 8 46
M  V30 48 1 9 47
M  V30 49 1 12 48
M  V30 50 1 14 49
M  V30 51 1 20 50
M  V30 52 1 26 51
M  V30 END BOND
M  V30 END CTAB
M  END
>  <catalyst_id>  (1) 
URCRNFCSBOWEEO_CYBMUJFWSA_NONE

>  <source_smiles>  (1) 
CC(C)[C@@H](CN(C)C)Nc1c(Nc2cc(C(F)(F)F)cc(C(F)(F)F)c2)c(=O)c1=O

>  <axial_configuration>  (1) 
none

>  <inchikey>  (1) 
URCRNFCSBOWEEO-CYBMUJFWSA-N

>  <build_source>  (1) 
smiles

>  <rdkit_version>  (1) 
2025.09.6

>  <random_seed>  (1) 
42

>  <generated_at>  (1) 
2026-05-19T12:39:20

$$$$
