catalyst230
     RDKit          3D

  0  0  0  0  0  0  0  0  0  0999 V3000
M  V30 BEGIN CTAB
M  V30 COUNTS 85 91 0 0 0
M  V30 BEGIN ATOM
M  V30 1 C -1.647275 -5.351638 4.116403 0
M  V30 2 C -1.953977 -4.294880 3.352759 0
M  V30 3 C -2.516686 -4.398441 1.954413 0 CFG=1
M  V30 4 C -3.864904 -3.643531 1.803704 0
M  V30 5 N -3.801234 -2.591047 0.752411 0
M  V30 6 C -3.504200 -3.247421 -0.539998 0
M  V30 7 C -2.208903 -4.071027 -0.487695 0
M  V30 8 C -1.536111 -3.864973 0.881429 0 CFG=1
M  V30 9 C -1.328303 -2.344613 1.026367 0
M  V30 10 C -2.699151 -1.636878 1.131681 0 CFG=1
M  V30 11 C -2.809099 -0.259708 0.380790 0 CFG=2
M  V30 12 O -2.205400 -0.302492 -0.920649 0
M  V30 13 C -2.973759 0.355313 -1.936018 0
M  V30 14 C -2.916105 1.863528 -1.827012 0
M  V30 15 C -1.672115 2.472194 -2.084025 0
M  V30 16 C -1.505420 3.844655 -1.954808 0
M  V30 17 C -2.582380 4.635006 -1.570201 0
M  V30 18 C -3.838849 4.068041 -1.314278 0
M  V30 19 C -4.904810 4.894764 -0.922686 0
M  V30 20 C -6.165534 4.366438 -0.656730 0
M  V30 21 C -6.376400 3.001400 -0.780560 0
M  V30 22 C -5.325571 2.165165 -1.168234 0
M  V30 23 C -4.029719 2.667179 -1.443496 0
M  V30 24 C -2.273642 0.887518 1.246331 0
M  V30 25 C -3.220877 1.539779 2.055144 0
M  V30 26 C -2.814675 2.568967 2.877246 0
M  V30 27 N -1.541729 2.988099 2.968667 0
M  V30 28 C -0.622537 2.385611 2.201096 0
M  V30 29 C 0.681260 2.845485 2.300416 0
M  V30 30 C 1.725846 2.301679 1.547553 0
M  V30 31 C 1.471207 1.264595 0.664800 0
M  V30 32 N 2.448241 0.660912 -0.154317 0
M  V30 33 C 3.820879 0.859540 -0.116752 0
M  V30 34 O 4.411988 1.540557 0.709596 0
M  V30 35 N 4.430620 0.173429 -1.159368 0
M  V30 36 C 5.813333 0.033757 -1.399043 0
M  V30 37 C 6.803597 0.405341 -0.487467 0
M  V30 38 C 8.166480 0.224291 -0.782497 0
M  V30 39 C 9.216984 0.652512 0.215643 0
M  V30 40 F 9.441501 1.994028 0.189402 0
M  V30 41 F 8.889660 0.345136 1.500299 0
M  V30 42 F 10.428484 0.067936 -0.006170 0
M  V30 43 C 8.529172 -0.329932 -2.019559 0
M  V30 44 C 7.550979 -0.711232 -2.949120 0
M  V30 45 C 7.941302 -1.337230 -4.266360 0
M  V30 46 F 9.145928 -0.904259 -4.728678 0
M  V30 47 F 7.045744 -1.081806 -5.260640 0
M  V30 48 F 8.032449 -2.692311 -4.184412 0
M  V30 49 C 6.196220 -0.534854 -2.620277 0
M  V30 50 C 0.156763 0.792314 0.551771 0
M  V30 51 C -0.917837 1.324413 1.311548 0
M  V30 52 H -1.247398 -5.215121 5.117025 0
M  V30 53 H -1.782486 -6.370839 3.767960 0
M  V30 54 H -1.796643 -3.298193 3.761375 0
M  V30 55 H -2.707087 -5.458828 1.734596 0
M  V30 56 H -4.657535 -4.358028 1.544180 0
M  V30 57 H -4.188403 -3.193289 2.751217 0
M  V30 58 H -4.341899 -3.900426 -0.816453 0
M  V30 59 H -3.449801 -2.507147 -1.344186 0
M  V30 60 H -1.534953 -3.757741 -1.293992 0
M  V30 61 H -2.428981 -5.133598 -0.645552 0
M  V30 62 H -0.576710 -4.393032 0.917711 0
M  V30 63 H -0.755020 -2.002654 0.160597 0
M  V30 64 H -0.726146 -2.120858 1.914293 0
M  V30 65 H -2.869388 -1.405225 2.193573 0
M  V30 66 H -3.885672 -0.082609 0.249616 0
M  V30 67 H -2.528042 0.071625 -2.897719 0
M  V30 68 H -3.986254 -0.055169 -1.966531 0
M  V30 69 H -0.815994 1.861937 -2.363726 0
M  V30 70 H -0.534863 4.297624 -2.137701 0
M  V30 71 H -2.429194 5.706883 -1.463208 0
M  V30 72 H -4.757292 5.968026 -0.819104 0
M  V30 73 H -6.978088 5.021860 -0.355373 0
M  V30 74 H -7.358190 2.581489 -0.577438 0
M  V30 75 H -5.548062 1.105445 -1.247907 0
M  V30 76 H -4.269390 1.257139 2.041809 0
M  V30 77 H -3.524414 3.098226 3.506040 0
M  V30 78 H 0.897168 3.662136 2.986452 0
M  V30 79 H 2.717171 2.724473 1.674439 0
M  V30 80 H 2.126286 -0.101589 -0.730356 0
M  V30 81 H 3.816815 -0.120235 -1.903829 0
M  V30 82 H 6.544234 0.833692 0.478806 0
M  V30 83 H 9.584972 -0.467849 -2.259984 0
M  V30 84 H 5.439323 -0.842043 -3.340997 0
M  V30 85 H -0.039497 0.002611 -0.162832 0
M  V30 END ATOM
M  V30 BEGIN BOND
M  V30 1 2 1 2
M  V30 2 1 2 3
M  V30 3 1 3 4
M  V30 4 1 4 5
M  V30 5 1 5 6
M  V30 6 1 6 7
M  V30 7 1 7 8
M  V30 8 1 8 9
M  V30 9 1 9 10
M  V30 10 1 10 11
M  V30 11 1 11 12
M  V30 12 1 12 13
M  V30 13 1 13 14
M  V30 14 2 14 15
M  V30 15 1 15 16
M  V30 16 2 16 17
M  V30 17 1 17 18
M  V30 18 2 18 19
M  V30 19 1 19 20
M  V30 20 2 20 21
M  V30 21 1 21 22
M  V30 22 2 22 23
M  V30 23 1 11 24
M  V30 24 2 24 25
M  V30 25 1 25 26
M  V30 26 2 26 27
M  V30 27 1 27 28
M  V30 28 2 28 29
M  V30 29 1 29 30
M  V30 30 2 30 31
M  V30 31 1 31 32
M  V30 32 1 32 33
M  V30 33 2 33 34
M  V30 34 1 33 35
M  V30 35 1 35 36
M  V30 36 2 36 37
M  V30 37 1 37 38
M  V30 38 1 38 39
M  V30 39 1 39 40
M  V30 40 1 39 41
M  V30 41 1 39 42
M  V30 42 2 38 43
M  V30 43 1 43 44
M  V30 44 1 44 45
M  V30 45 1 45 46
M  V30 46 1 45 47
M  V30 47 1 45 48
M  V30 48 2 44 49
M  V30 49 1 31 50
M  V30 50 2 50 51
M  V30 51 1 8 3
M  V30 52 1 23 14
M  V30 53 1 51 24
M  V30 54 1 10 5
M  V30 55 1 23 18
M  V30 56 1 51 28
M  V30 57 1 49 36
M  V30 58 1 1 52
M  V30 59 1 1 53
M  V30 60 1 2 54
M  V30 61 1 3 55 CFG=3
M  V30 62 1 4 56
M  V30 63 1 4 57
M  V30 64 1 6 58
M  V30 65 1 6 59
M  V30 66 1 7 60
M  V30 67 1 7 61
M  V30 68 1 8 62 CFG=3
M  V30 69 1 9 63
M  V30 70 1 9 64
M  V30 71 1 10 65 CFG=1
M  V30 72 1 11 66 CFG=3
M  V30 73 1 13 67
M  V30 74 1 13 68
M  V30 75 1 15 69
M  V30 76 1 16 70
M  V30 77 1 17 71
M  V30 78 1 19 72
M  V30 79 1 20 73
M  V30 80 1 21 74
M  V30 81 1 22 75
M  V30 82 1 25 76
M  V30 83 1 26 77
M  V30 84 1 29 78
M  V30 85 1 30 79
M  V30 86 1 32 80
M  V30 87 1 35 81
M  V30 88 1 37 82
M  V30 89 1 43 83
M  V30 90 1 49 84
M  V30 91 1 50 85
M  V30 END BOND
M  V30 END CTAB
M  END
>  <catalyst_id>  (1) 
NZYAJPGAISUSCO_MKDOTMSLSA_NONE

>  <source_smiles>  (1) 
C=C[C@H]1CN2CC[C@H]1C[C@H]2[C@H](OCc1cccc2ccccc12)c1ccnc2ccc(NC(=O)Nc3cc(C(F)(F)F)cc(C(F)(F)F)c3)cc12

>  <axial_configuration>  (1) 
none

>  <inchikey>  (1) 
NZYAJPGAISUSCO-MKDOTMSLSA-N

>  <build_source>  (1) 
smiles

>  <rdkit_version>  (1) 
2025.09.6

>  <random_seed>  (1) 
42

>  <generated_at>  (1) 
2026-05-19T12:33:47

$$$$
