catalyst337
     RDKit          3D

  0  0  0  0  0  0  0  0  0  0999 V3000
M  V30 BEGIN CTAB
M  V30 COUNTS 38 40 0 0 0
M  V30 BEGIN ATOM
M  V30 1 C -1.956877 -1.578733 1.895390 0
M  V30 2 N -1.032278 -1.434991 0.792944 0
M  V30 3 C 0.070541 -2.262480 0.673087 0
M  V30 4 O 0.534941 -2.996142 1.531054 0
M  V30 5 C 0.558269 -2.125814 -0.756614 0 CFG=2
M  V30 6 C 2.077707 -1.913636 -0.845679 0
M  V30 7 C 2.577002 -0.589795 -0.304663 0
M  V30 8 C 2.805401 0.490077 -1.169927 0
M  V30 9 C 3.231363 1.721207 -0.669580 0
M  V30 10 C 3.437699 1.884783 0.698517 0
M  V30 11 C 3.221493 0.816759 1.566726 0
M  V30 12 C 2.794840 -0.415130 1.068559 0
M  V30 13 N -0.270109 -1.043248 -1.341912 0
M  V30 14 C -1.463862 -0.962887 -0.491627 0 CFG=2
M  V30 15 C -2.036000 0.439686 -0.478958 0
M  V30 16 C -3.206863 0.728631 -1.197290 0
M  V30 17 C -3.734471 2.021619 -1.208600 0
M  V30 18 C -3.095348 3.043837 -0.509708 0
M  V30 19 C -1.925692 2.777447 0.198272 0
M  V30 20 C -1.396658 1.486107 0.211346 0
M  V30 21 H -1.421546 -1.892961 2.796035 0
M  V30 22 H -2.693825 -2.345977 1.640343 0
M  V30 23 H -2.460486 -0.629528 2.091840 0
M  V30 24 H 0.299156 -3.063035 -1.265252 0
M  V30 25 H 2.387480 -2.002847 -1.895432 0
M  V30 26 H 2.598857 -2.722102 -0.316092 0
M  V30 27 H 2.646924 0.380219 -2.241008 0
M  V30 28 H 3.403691 2.552547 -1.348261 0
M  V30 29 H 3.771983 2.842722 1.087842 0
M  V30 30 H 3.386939 0.940368 2.633919 0
M  V30 31 H 2.633696 -1.238335 1.763080 0
M  V30 32 H 0.229616 -0.165529 -1.198996 0
M  V30 33 H -2.211074 -1.675947 -0.864279 0
M  V30 34 H -3.713560 -0.052774 -1.759774 0
M  V30 35 H -4.642321 2.232611 -1.768070 0
M  V30 36 H -3.506037 4.050061 -0.521559 0
M  V30 37 H -1.422055 3.574928 0.738488 0
M  V30 38 H -0.478534 1.295820 0.765841 0
M  V30 END ATOM
M  V30 BEGIN BOND
M  V30 1 1 1 2
M  V30 2 1 2 3
M  V30 3 2 3 4
M  V30 4 1 3 5
M  V30 5 1 5 6
M  V30 6 1 6 7
M  V30 7 2 7 8
M  V30 8 1 8 9
M  V30 9 2 9 10
M  V30 10 1 10 11
M  V30 11 2 11 12
M  V30 12 1 5 13
M  V30 13 1 13 14
M  V30 14 1 14 15
M  V30 15 2 15 16
M  V30 16 1 16 17
M  V30 17 2 17 18
M  V30 18 1 18 19
M  V30 19 2 19 20
M  V30 20 1 14 2
M  V30 21 1 20 15
M  V30 22 1 12 7
M  V30 23 1 1 21
M  V30 24 1 1 22
M  V30 25 1 1 23
M  V30 26 1 5 24 CFG=3
M  V30 27 1 6 25
M  V30 28 1 6 26
M  V30 29 1 8 27
M  V30 30 1 9 28
M  V30 31 1 10 29
M  V30 32 1 11 30
M  V30 33 1 12 31
M  V30 34 1 13 32
M  V30 35 1 14 33 CFG=3
M  V30 36 1 16 34
M  V30 37 1 17 35
M  V30 38 1 18 36
M  V30 39 1 19 37
M  V30 40 1 20 38
M  V30 END BOND
M  V30 END CTAB
M  END
>  <catalyst_id>  (1) 
SRAHHTPNHRABOU_HOTGVXAUSA_NONE

>  <source_smiles>  (1) 
CN1C(=O)[C@H](Cc2ccccc2)N[C@@H]1c1ccccc1

>  <axial_configuration>  (1) 
none

>  <inchikey>  (1) 
SRAHHTPNHRABOU-HOTGVXAUSA-N

>  <build_source>  (1) 
smiles

>  <rdkit_version>  (1) 
2025.09.6

>  <random_seed>  (1) 
42

>  <generated_at>  (1) 
2026-05-19T12:30:04

$$$$
