catalyst367
     RDKit          3D

  0  0  0  0  0  0  0  0  0  0999 V3000
M  V30 BEGIN CTAB
M  V30 COUNTS 61 65 0 0 0
M  V30 BEGIN ATOM
M  V30 1 C 4.844736 1.026822 1.971984 0
M  V30 2 C 4.906932 1.278867 0.658124 0
M  V30 3 C 4.335548 0.474470 -0.492811 0 CFG=1
M  V30 4 C 3.724275 -0.926188 -0.189367 0
M  V30 5 N 2.280500 -0.994633 -0.545025 0
M  V30 6 C 2.156963 -0.812144 -2.008447 0
M  V30 7 C 2.846943 0.472049 -2.489301 0
M  V30 8 C 3.272309 1.301083 -1.266143 0 CFG=1
M  V30 9 C 2.007738 1.482541 -0.403452 0
M  V30 10 C 1.583844 0.111296 0.186858 0 CFG=1
M  V30 11 C 0.023653 -0.033275 0.292215 0 CFG=2
M  V30 12 O -0.467416 1.166792 0.936807 0
M  V30 13 C -1.678634 1.660667 0.537512 0
M  V30 14 C -1.860061 3.026450 0.768213 0
M  V30 15 C -3.062053 3.659880 0.430462 0
M  V30 16 C -3.231698 5.133472 0.650685 0
M  V30 17 C -4.082457 2.907713 -0.162397 0
M  V30 18 C -3.917124 1.536400 -0.394392 0
M  V30 19 C -5.038496 0.723972 -0.972978 0
M  V30 20 C -2.716067 0.915603 -0.021639 0
M  V30 21 C -0.362020 -1.253584 1.131855 0
M  V30 22 C -0.263076 -1.158297 2.529002 0
M  V30 23 C -0.596030 -2.249654 3.303452 0
M  V30 24 N -1.013321 -3.424701 2.798394 0
M  V30 25 C -1.110087 -3.538193 1.465918 0
M  V30 26 C -1.543329 -4.758260 0.962735 0
M  V30 27 C -1.688111 -4.988266 -0.405745 0
M  V30 28 C -1.390326 -3.966241 -1.287553 0
M  V30 29 O -1.515277 -4.127154 -2.634917 0
M  V30 30 C -0.952951 -2.732522 -0.817959 0
M  V30 31 C -0.799747 -2.485433 0.568052 0
M  V30 32 H 4.333884 0.167675 2.390711 0
M  V30 33 H 5.312465 1.704491 2.681226 0
M  V30 34 H 5.443042 2.178678 0.353281 0
M  V30 35 H 5.183125 0.303613 -1.172743 0
M  V30 36 H 4.264793 -1.687711 -0.768245 0
M  V30 37 H 3.852696 -1.234699 0.852213 0
M  V30 38 H 2.588273 -1.679007 -2.524488 0
M  V30 39 H 1.103618 -0.796508 -2.305986 0
M  V30 40 H 3.721845 0.226887 -3.103205 0
M  V30 41 H 2.160585 1.049162 -3.120299 0
M  V30 42 H 3.669048 2.271240 -1.585845 0
M  V30 43 H 2.197044 2.193071 0.409774 0
M  V30 44 H 1.209883 1.911085 -1.022976 0
M  V30 45 H 1.948817 0.097957 1.224651 0
M  V30 46 H -0.382894 -0.078667 -0.721937 0
M  V30 47 H -1.050944 3.598785 1.216434 0
M  V30 48 H -2.892300 5.684973 -0.231446 0
M  V30 49 H -4.280995 5.381857 0.841689 0
M  V30 50 H -2.656133 5.467565 1.520357 0
M  V30 51 H -5.017893 3.391433 -0.437554 0
M  V30 52 H -4.649915 -0.111844 -1.564394 0
M  V30 53 H -5.658531 1.332177 -1.639916 0
M  V30 54 H -5.666555 0.327836 -0.169174 0
M  V30 55 H -2.624276 -0.156002 -0.163437 0
M  V30 56 H 0.064733 -0.241522 3.009621 0
M  V30 57 H -0.534130 -2.206180 4.386815 0
M  V30 58 H -1.776416 -5.556623 1.664168 0
M  V30 59 H -2.030530 -5.958494 -0.749168 0
M  V30 60 H -1.794937 -5.040273 -2.814149 0
M  V30 61 H -0.732562 -1.970486 -1.556122 0
M  V30 END ATOM
M  V30 BEGIN BOND
M  V30 1 2 1 2
M  V30 2 1 2 3
M  V30 3 1 3 4
M  V30 4 1 4 5
M  V30 5 1 5 6
M  V30 6 1 6 7
M  V30 7 1 7 8
M  V30 8 1 8 9
M  V30 9 1 9 10
M  V30 10 1 10 11
M  V30 11 1 11 12
M  V30 12 1 12 13
M  V30 13 2 13 14
M  V30 14 1 14 15
M  V30 15 1 15 16
M  V30 16 2 15 17
M  V30 17 1 17 18
M  V30 18 1 18 19
M  V30 19 2 18 20
M  V30 20 1 11 21
M  V30 21 2 21 22
M  V30 22 1 22 23
M  V30 23 2 23 24
M  V30 24 1 24 25
M  V30 25 2 25 26
M  V30 26 1 26 27
M  V30 27 2 27 28
M  V30 28 1 28 29
M  V30 29 1 28 30
M  V30 30 2 30 31
M  V30 31 1 8 3
M  V30 32 1 20 13
M  V30 33 1 31 21
M  V30 34 1 10 5
M  V30 35 1 31 25
M  V30 36 1 1 32
M  V30 37 1 1 33
M  V30 38 1 2 34
M  V30 39 1 3 35 CFG=3
M  V30 40 1 4 36
M  V30 41 1 4 37
M  V30 42 1 6 38
M  V30 43 1 6 39
M  V30 44 1 7 40
M  V30 45 1 7 41
M  V30 46 1 8 42 CFG=3
M  V30 47 1 9 43
M  V30 48 1 9 44
M  V30 49 1 10 45 CFG=1
M  V30 50 1 11 46 CFG=3
M  V30 51 1 14 47
M  V30 52 1 16 48
M  V30 53 1 16 49
M  V30 54 1 16 50
M  V30 55 1 17 51
M  V30 56 1 19 52
M  V30 57 1 19 53
M  V30 58 1 19 54
M  V30 59 1 20 55
M  V30 60 1 22 56
M  V30 61 1 23 57
M  V30 62 1 26 58
M  V30 63 1 27 59
M  V30 64 1 29 60
M  V30 65 1 30 61
M  V30 END BOND
M  V30 END CTAB
M  END
>  <catalyst_id>  (1) 
VNWVITUWLZWUMT_LQBPYSJUSA_NONE

>  <source_smiles>  (1) 
C=C[C@H]1CN2CC[C@H]1C[C@H]2[C@H](Oc1cc(C)cc(C)c1)c1ccnc2ccc(O)cc12

>  <axial_configuration>  (1) 
none

>  <inchikey>  (1) 
VNWVITUWLZWUMT-LQBPYSJUSA-N

>  <build_source>  (1) 
smiles

>  <rdkit_version>  (1) 
2025.09.6

>  <random_seed>  (1) 
42

>  <generated_at>  (1) 
2026-05-19T12:37:07

$$$$
