catalyst177
     RDKit          3D

  0  0  0  0  0  0  0  0  0  0999 V3000
M  V30 BEGIN CTAB
M  V30 COUNTS 71 76 0 0 0
M  V30 BEGIN ATOM
M  V30 1 C 5.951212 4.222632 -0.640602 0
M  V30 2 N 5.198847 3.126383 -1.250031 0
M  V30 3 C 4.209040 3.523690 -2.251343 0
M  V30 4 C 4.978726 1.957775 -0.507786 0
M  V30 5 C 5.694472 1.667044 0.656093 0
M  V30 6 C 5.441241 0.492204 1.347943 0
M  V30 7 N 4.539297 -0.431007 0.966417 0
M  V30 8 C 3.865845 -0.198046 -0.170230 0
M  V30 9 N 2.893150 -1.105498 -0.617884 0
M  V30 10 C 2.768322 -2.368943 0.135083 0 CFG=2
M  V30 11 C 3.862424 -3.368955 -0.263039 0
M  V30 12 C 3.695766 -4.693312 0.479688 0
M  V30 13 C 2.303622 -5.287400 0.285144 0
M  V30 14 C 1.201611 -4.291254 0.640436 0
M  V30 15 C 1.359693 -2.985871 -0.149025 0 CFG=1
M  V30 16 N 0.312179 -2.018937 0.228718 0
M  V30 17 C -0.918081 -2.041806 -0.246835 0
M  V30 18 C -2.008703 -1.204152 -0.233227 0
M  V30 19 N -2.265258 -0.015668 0.281310 0
M  V30 20 C -3.521720 0.741174 0.241712 0 CFG=1
M  V30 21 C -3.297081 2.075706 1.010541 0
M  V30 22 C -4.575284 2.930210 1.013437 0 CFG=2
M  V30 23 C -5.706921 2.141870 1.690944 0
M  V30 24 C -5.955295 0.827320 0.934594 0 CFG=1
M  V30 25 C -6.340152 1.143628 -0.521430 0
M  V30 26 C -5.216558 1.939444 -1.208714 0 CFG=1
M  V30 27 C -4.973994 3.245695 -0.436466 0
M  V30 28 C -3.925631 1.101071 -1.205658 0
M  V30 29 C -4.668115 -0.016725 0.947570 0
M  V30 30 C -2.816443 -2.166270 -1.029345 0
M  V30 31 O -3.922513 -2.285720 -1.499587 0
M  V30 32 C -1.632742 -3.054049 -1.061986 0
M  V30 33 O -1.423396 -4.122056 -1.584488 0
M  V30 34 C 4.055215 0.977240 -0.906029 0
M  V30 35 H 6.055245 5.065476 -1.333211 0
M  V30 36 H 6.971528 3.912812 -0.390525 0
M  V30 37 H 5.447466 4.592914 0.259079 0
M  V30 38 H 4.129010 2.776192 -3.047795 0
M  V30 39 H 3.226513 3.681038 -1.792805 0
M  V30 40 H 4.496943 4.458526 -2.745440 0
M  V30 41 H 6.450729 2.332585 1.052313 0
M  V30 42 H 5.981639 0.258826 2.260696 0
M  V30 43 H 3.004181 -1.262015 -1.615670 0
M  V30 44 H 2.821135 -2.168376 1.214690 0
M  V30 45 H 4.857482 -2.962621 -0.049346 0
M  V30 46 H 3.828954 -3.550196 -1.345250 0
M  V30 47 H 4.451570 -5.407170 0.133146 0
M  V30 48 H 3.875790 -4.533484 1.550009 0
M  V30 49 H 2.199007 -6.187188 0.901882 0
M  V30 50 H 2.185366 -5.601516 -0.759299 0
M  V30 51 H 0.227314 -4.751074 0.443518 0
M  V30 52 H 1.229707 -4.082588 1.717965 0
M  V30 53 H 1.282751 -3.190248 -1.226184 0
M  V30 54 H 0.727709 -1.119876 0.492880 0
M  V30 55 H -1.543968 0.426786 0.851611 0
M  V30 56 H -2.474781 2.642408 0.553164 0
M  V30 57 H -2.989249 1.870037 2.044711 0
M  V30 58 H -4.396187 3.863242 1.559232 0
M  V30 59 H -5.443925 1.930075 2.734604 0
M  V30 60 H -6.624220 2.743081 1.709495 0
M  V30 61 H -6.765640 0.270906 1.418778 0
M  V30 62 H -7.272743 1.720814 -0.543382 0
M  V30 63 H -6.529025 0.212463 -1.069697 0
M  V30 64 H -5.504170 2.169387 -2.240751 0
M  V30 65 H -5.880111 3.863743 -0.450607 0
M  V30 66 H -4.183330 3.828645 -0.924598 0
M  V30 67 H -4.087717 0.203314 -1.809557 0
M  V30 68 H -3.117415 1.657370 -1.698616 0
M  V30 69 H -4.386808 -0.253754 1.982134 0
M  V30 70 H -4.870435 -0.975699 0.460649 0
M  V30 71 H 3.456907 1.107745 -1.799599 0
M  V30 END ATOM
M  V30 BEGIN BOND
M  V30 1 1 1 2
M  V30 2 1 2 3
M  V30 3 1 2 4
M  V30 4 2 4 5
M  V30 5 1 5 6
M  V30 6 2 6 7
M  V30 7 1 7 8
M  V30 8 1 8 9
M  V30 9 1 9 10
M  V30 10 1 10 11
M  V30 11 1 11 12
M  V30 12 1 12 13
M  V30 13 1 13 14
M  V30 14 1 14 15
M  V30 15 1 15 16
M  V30 16 1 16 17
M  V30 17 2 17 18
M  V30 18 1 18 19
M  V30 19 1 20 19 CFG=3
M  V30 20 1 20 21
M  V30 21 1 21 22
M  V30 22 1 22 23
M  V30 23 1 23 24
M  V30 24 1 24 25
M  V30 25 1 25 26
M  V30 26 1 26 27
M  V30 27 1 26 28
M  V30 28 1 24 29
M  V30 29 1 18 30
M  V30 30 2 30 31
M  V30 31 1 30 32
M  V30 32 2 32 33
M  V30 33 2 8 34
M  V30 34 1 34 4
M  V30 35 1 15 10
M  V30 36 1 32 17
M  V30 37 1 28 20
M  V30 38 1 29 20
M  V30 39 1 27 22
M  V30 40 1 1 35
M  V30 41 1 1 36
M  V30 42 1 1 37
M  V30 43 1 3 38
M  V30 44 1 3 39
M  V30 45 1 3 40
M  V30 46 1 5 41
M  V30 47 1 6 42
M  V30 48 1 9 43
M  V30 49 1 10 44 CFG=1
M  V30 50 1 11 45
M  V30 51 1 11 46
M  V30 52 1 12 47
M  V30 53 1 12 48
M  V30 54 1 13 49
M  V30 55 1 13 50
M  V30 56 1 14 51
M  V30 57 1 14 52
M  V30 58 1 15 53 CFG=3
M  V30 59 1 16 54
M  V30 60 1 19 55
M  V30 61 1 21 56
M  V30 62 1 21 57
M  V30 63 1 22 58 CFG=1
M  V30 64 1 23 59
M  V30 65 1 23 60
M  V30 66 1 24 61 CFG=1
M  V30 67 1 25 62
M  V30 68 1 25 63
M  V30 69 1 26 64 CFG=3
M  V30 70 1 27 65
M  V30 71 1 27 66
M  V30 72 1 28 67
M  V30 73 1 28 68
M  V30 74 1 29 69
M  V30 75 1 29 70
M  V30 76 1 34 71
M  V30 END BOND
M  V30 END CTAB
M  END
>  <catalyst_id>  (1) 
LNLWTTOGFRQWNA_GVPNEKTASA_NONE

>  <source_smiles>  (1) 
CN(C)c1ccnc(N[C@@H]2CCCC[C@H]2Nc2c(NC34CC5CC(CC(C5)C3)C4)c(=O)c2=O)c1

>  <axial_configuration>  (1) 
none

>  <inchikey>  (1) 
LNLWTTOGFRQWNA-GVPNEKTASA-N

>  <build_source>  (1) 
smiles

>  <rdkit_version>  (1) 
2025.09.6

>  <random_seed>  (1) 
42

>  <generated_at>  (1) 
2026-05-19T12:37:14

$$$$
