catalyst30
     RDKit          3D

  0  0  0  0  0  0  0  0  0  0999 V3000
M  V30 BEGIN CTAB
M  V30 COUNTS 64 68 0 0 0
M  V30 BEGIN ATOM
M  V30 1 C 6.547054 -0.364184 0.643989 0
M  V30 2 C 5.399542 -0.128312 -0.329840 0
M  V30 3 C 4.487466 -1.358360 -0.477993 0 CFG=1
M  V30 4 C 3.666547 -1.654323 0.801519 0
M  V30 5 N 2.208155 -1.694482 0.526305 0
M  V30 6 C 1.949602 -2.766443 -0.462471 0
M  V30 7 C 2.723885 -2.541374 -1.768716 0
M  V30 8 C 3.510201 -1.222444 -1.672037 0 CFG=1
M  V30 9 C 2.476433 -0.115793 -1.403319 0
M  V30 10 C 1.809082 -0.355386 -0.028747 0 CFG=1
M  V30 11 C 0.249882 -0.159790 -0.069244 0 CFG=1
M  V30 12 N -0.370731 -0.781321 1.113229 0
M  V30 13 C -1.676889 -1.180486 1.240934 0
M  V30 14 S -1.962059 -2.497135 2.226383 0
M  V30 15 N -2.582026 -0.402254 0.567518 0
M  V30 16 C -3.929168 -0.623913 0.216062 0
M  V30 17 C -4.511639 -1.884499 0.091139 0
M  V30 18 C -5.851664 -2.014919 -0.294674 0
M  V30 19 C -6.632236 -0.884526 -0.571697 0
M  V30 20 C -8.069080 -1.027754 -1.008498 0
M  V30 21 F -8.190378 -1.110615 -2.362467 0
M  V30 22 F -8.850524 0.021587 -0.627857 0
M  V30 23 F -8.674855 -2.141461 -0.510156 0
M  V30 24 C -6.035801 0.379417 -0.479129 0
M  V30 25 C -4.697178 0.505796 -0.094065 0
M  V30 26 C -0.133880 1.305499 -0.259632 0
M  V30 27 C -0.630010 1.676277 -1.519922 0
M  V30 28 C -0.997439 2.987079 -1.737307 0
M  V30 29 N -0.909291 3.947764 -0.801360 0
M  V30 30 C -0.433409 3.617827 0.409131 0
M  V30 31 C -0.349308 4.625622 1.359939 0
M  V30 32 C 0.121606 4.387729 2.650949 0
M  V30 33 C 0.518728 3.109249 3.006717 0
M  V30 34 C 0.445323 2.079523 2.068493 0
M  V30 35 C -0.026533 2.304741 0.750688 0
M  V30 36 H 7.161806 -1.212304 0.326048 0
M  V30 37 H 7.190059 0.520714 0.687687 0
M  V30 38 H 6.183666 -0.563745 1.656192 0
M  V30 39 H 5.826251 0.126883 -1.307361 0
M  V30 40 H 4.825509 0.742947 0.005304 0
M  V30 41 H 5.130915 -2.227008 -0.677709 0
M  V30 42 H 3.858945 -0.915389 1.588674 0
M  V30 43 H 3.981241 -2.616282 1.226526 0
M  V30 44 H 2.225834 -3.736535 -0.030173 0
M  V30 45 H 0.876318 -2.843488 -0.670887 0
M  V30 46 H 3.409273 -3.378030 -1.949240 0
M  V30 47 H 2.027334 -2.505963 -2.614909 0
M  V30 48 H 4.048896 -1.032710 -2.606650 0
M  V30 49 H 2.956892 0.869157 -1.416798 0
M  V30 50 H 1.737679 -0.116252 -2.213584 0
M  V30 51 H 2.209111 0.393901 0.666795 0
M  V30 52 H -0.145964 -0.737030 -0.916253 0
M  V30 53 H 0.266488 -1.438717 1.562305 0
M  V30 54 H -2.289804 0.564683 0.508971 0
M  V30 55 H -3.943112 -2.793367 0.256676 0
M  V30 56 H -6.280808 -3.012552 -0.381674 0
M  V30 57 H -6.612078 1.276041 -0.703481 0
M  V30 58 H -4.267939 1.503615 -0.026872 0
M  V30 59 H -0.737522 0.955058 -2.324897 0
M  V30 60 H -1.386445 3.310514 -2.698793 0
M  V30 61 H -0.663609 5.630722 1.086609 0
M  V30 62 H 0.171442 5.200185 3.370835 0
M  V30 63 H 0.881455 2.906619 4.011365 0
M  V30 64 H 0.758758 1.089999 2.391430 0
M  V30 END ATOM
M  V30 BEGIN BOND
M  V30 1 1 1 2
M  V30 2 1 2 3
M  V30 3 1 3 4
M  V30 4 1 4 5
M  V30 5 1 5 6
M  V30 6 1 6 7
M  V30 7 1 7 8
M  V30 8 1 8 9
M  V30 9 1 9 10
M  V30 10 1 10 11
M  V30 11 1 11 12
M  V30 12 1 12 13
M  V30 13 2 13 14
M  V30 14 1 13 15
M  V30 15 1 15 16
M  V30 16 2 16 17
M  V30 17 1 17 18
M  V30 18 2 18 19
M  V30 19 1 19 20
M  V30 20 1 20 21
M  V30 21 1 20 22
M  V30 22 1 20 23
M  V30 23 1 19 24
M  V30 24 2 24 25
M  V30 25 1 11 26
M  V30 26 2 26 27
M  V30 27 1 27 28
M  V30 28 2 28 29
M  V30 29 1 29 30
M  V30 30 2 30 31
M  V30 31 1 31 32
M  V30 32 2 32 33
M  V30 33 1 33 34
M  V30 34 2 34 35
M  V30 35 1 8 3
M  V30 36 1 25 16
M  V30 37 1 35 26
M  V30 38 1 10 5
M  V30 39 1 35 30
M  V30 40 1 1 36
M  V30 41 1 1 37
M  V30 42 1 1 38
M  V30 43 1 2 39
M  V30 44 1 2 40
M  V30 45 1 3 41 CFG=3
M  V30 46 1 4 42
M  V30 47 1 4 43
M  V30 48 1 6 44
M  V30 49 1 6 45
M  V30 50 1 7 46
M  V30 51 1 7 47
M  V30 52 1 8 48 CFG=3
M  V30 53 1 9 49
M  V30 54 1 9 50
M  V30 55 1 10 51 CFG=1
M  V30 56 1 11 52 CFG=3
M  V30 57 1 12 53
M  V30 58 1 15 54
M  V30 59 1 17 55
M  V30 60 1 18 56
M  V30 61 1 24 57
M  V30 62 1 25 58
M  V30 63 1 27 59
M  V30 64 1 28 60
M  V30 65 1 31 61
M  V30 66 1 32 62
M  V30 67 1 33 63
M  V30 68 1 34 64
M  V30 END BOND
M  V30 END CTAB
M  END
>  <catalyst_id>  (1) 
CNYNFRBRDASMDK_WBYKHBECSA_NONE

>  <source_smiles>  (1) 
CC[C@H]1CN2CC[C@H]1C[C@H]2[C@@H](NC(=S)Nc1ccc(C(F)(F)F)cc1)c1ccnc2ccccc12

>  <axial_configuration>  (1) 
none

>  <inchikey>  (1) 
CNYNFRBRDASMDK-WBYKHBECSA-N

>  <build_source>  (1) 
smiles

>  <rdkit_version>  (1) 
2025.09.6

>  <random_seed>  (1) 
42

>  <generated_at>  (1) 
2026-05-19T12:37:13

$$$$
