catalyst215
     RDKit          3D

  0  0  0  0  0  0  0  0  0  0999 V3000
M  V30 BEGIN CTAB
M  V30 COUNTS 20 20 0 0 0
M  V30 BEGIN ATOM
M  V30 1 C -2.650957 0.060876 -0.204474 0
M  V30 2 C -1.201268 0.158672 0.243353 0 CFG=2
M  V30 3 C -0.230466 0.334575 -0.917340 0
M  V30 4 C 1.097889 -0.195425 -0.376436 0 CFG=1
M  V30 5 C 2.092573 0.893510 -0.065041 0
M  V30 6 O 1.943567 2.096036 -0.196415 0
M  V30 7 O 3.269094 0.399541 0.371807 0
M  V30 8 C 0.727442 -0.956706 0.892558 0
M  V30 9 N -0.737891 -1.081992 0.882288 0
M  V30 10 H -3.313366 -0.097134 0.653398 0
M  V30 11 H -2.805125 -0.767420 -0.905032 0
M  V30 12 H -2.960739 0.984474 -0.704670 0
M  V30 13 H -1.098355 0.989583 0.952952 0
M  V30 14 H -0.194282 1.373421 -1.259612 0
M  V30 15 H -0.538473 -0.280755 -1.773093 0
M  V30 16 H 1.548310 -0.853674 -1.129285 0
M  V30 17 H 3.821410 1.196585 0.519894 0
M  V30 18 H 1.192989 -1.947722 0.915649 0
M  V30 19 H 1.036427 -0.429781 1.803236 0
M  V30 20 H -0.998778 -1.876663 0.296264 0
M  V30 END ATOM
M  V30 BEGIN BOND
M  V30 1 1 1 2
M  V30 2 1 2 3
M  V30 3 1 3 4
M  V30 4 1 4 5
M  V30 5 2 5 6
M  V30 6 1 5 7
M  V30 7 1 4 8
M  V30 8 1 8 9
M  V30 9 1 9 2
M  V30 10 1 1 10
M  V30 11 1 1 11
M  V30 12 1 1 12
M  V30 13 1 2 13 CFG=1
M  V30 14 1 3 14
M  V30 15 1 3 15
M  V30 16 1 4 16 CFG=3
M  V30 17 1 7 17
M  V30 18 1 8 18
M  V30 19 1 8 19
M  V30 20 1 9 20
M  V30 END BOND
M  V30 END CTAB
M  END
>  <catalyst_id>  (1) 
NJLZXBZFWMPWSO_RFZPGFLSSA_NONE

>  <source_smiles>  (1) 
C[C@@H]1C[C@@H](C(=O)O)CN1

>  <axial_configuration>  (1) 
none

>  <inchikey>  (1) 
NJLZXBZFWMPWSO-RFZPGFLSSA-N

>  <build_source>  (1) 
smiles

>  <rdkit_version>  (1) 
2025.09.6

>  <random_seed>  (1) 
42

>  <generated_at>  (1) 
2026-05-19T12:29:57

$$$$
