catalyst39
     RDKit          3D

  0  0  0  0  0  0  0  0  0  0999 V3000
M  V30 BEGIN CTAB
M  V30 COUNTS 70 75 0 0 0
M  V30 BEGIN ATOM
M  V30 1 C -4.121193 -1.375838 -3.715665 0
M  V30 2 C -3.538669 -1.307330 -2.511485 0
M  V30 3 C -3.947937 -2.155072 -1.329988 0 CFG=1
M  V30 4 C -2.762397 -2.988320 -0.776506 0
M  V30 5 N -2.695415 -2.950192 0.709523 0
M  V30 6 C -4.025455 -3.337921 1.240742 0
M  V30 7 C -5.106568 -2.311141 0.863470 0
M  V30 8 C -4.531784 -1.318126 -0.164051 0 CFG=1
M  V30 9 C -3.394628 -0.545064 0.532966 0
M  V30 10 C -2.401698 -1.545523 1.169550 0 CFG=2
M  V30 11 C -0.890340 -1.139810 0.955633 0 CFG=2
M  V30 12 N -0.048402 -2.308802 1.306051 0
M  V30 13 C 1.208624 -2.454596 0.921485 0
M  V30 14 C 2.318346 -1.699420 0.616083 0
M  V30 15 N 2.620253 -0.418865 0.622146 0
M  V30 16 C 3.694914 0.301218 0.057952 0
M  V30 17 C 4.545998 -0.207906 -0.925290 0
M  V30 18 C 5.612848 0.551767 -1.423376 0
M  V30 19 C 5.854998 1.846494 -0.948129 0
M  V30 20 C 7.015077 2.657506 -1.468364 0
M  V30 21 F 7.376760 2.326050 -2.739589 0
M  V30 22 F 8.135410 2.510702 -0.709270 0
M  V30 23 F 6.756322 3.995829 -1.496590 0
M  V30 24 C 5.016638 2.358425 0.048676 0
M  V30 25 C 3.953749 1.594513 0.542007 0
M  V30 26 C 3.125926 -2.911896 0.329902 0
M  V30 27 O 4.240332 -3.233964 -0.006692 0
M  V30 28 C 1.932783 -3.721951 0.656551 0
M  V30 29 O 1.717050 -4.908534 0.661717 0
M  V30 30 C -0.517395 0.076901 1.796836 0
M  V30 31 C -0.351774 -0.092627 3.180689 0
M  V30 32 C -0.011674 0.995394 3.954536 0
M  V30 33 N 0.169811 2.232311 3.457337 0
M  V30 34 C 0.009871 2.419007 2.140336 0
M  V30 35 C 0.211811 3.700100 1.649027 0
M  V30 36 C 0.095710 4.004666 0.290118 0
M  V30 37 C -0.230975 3.002442 -0.609175 0
M  V30 38 O -0.376671 3.144354 -1.960086 0
M  V30 39 C -0.100934 4.429379 -2.505523 0
M  V30 40 C -0.443487 1.706100 -0.131091 0
M  V30 41 C -0.333386 1.379187 1.244855 0
M  V30 42 H -4.942816 -2.055994 -3.918920 0
M  V30 43 H -3.784682 -0.743491 -4.532262 0
M  V30 44 H -2.718959 -0.604618 -2.377162 0
M  V30 45 H -4.728017 -2.856940 -1.659076 0
M  V30 46 H -2.877447 -4.032433 -1.096777 0
M  V30 47 H -1.803002 -2.670024 -1.201541 0
M  V30 48 H -3.974770 -3.442694 2.331514 0
M  V30 49 H -4.298768 -4.331559 0.863536 0
M  V30 50 H -5.980105 -2.826913 0.447814 0
M  V30 51 H -5.442961 -1.771728 1.757160 0
M  V30 52 H -5.310519 -0.630512 -0.512136 0
M  V30 53 H -3.814143 0.096487 1.318029 0
M  V30 54 H -2.903518 0.117730 -0.184048 0
M  V30 55 H -2.574515 -1.543351 2.255931 0
M  V30 56 H -0.730124 -0.951973 -0.109435 0
M  V30 57 H -0.653843 -3.145229 1.301459 0
M  V30 58 H 1.986498 0.216004 1.104702 0
M  V30 59 H 4.392047 -1.195167 -1.348299 0
M  V30 60 H 6.254061 0.119307 -2.190733 0
M  V30 61 H 5.187558 3.355354 0.452082 0
M  V30 62 H 3.328913 2.021988 1.324332 0
M  V30 63 H -0.472013 -1.066907 3.646729 0
M  V30 64 H 0.131448 0.898814 5.027173 0
M  V30 65 H 0.472177 4.492309 2.348716 0
M  V30 66 H 0.267352 5.029440 -0.021339 0
M  V30 67 H -0.231494 4.366955 -3.590150 0
M  V30 68 H -0.806183 5.176614 -2.127159 0
M  V30 69 H 0.934577 4.727695 -2.310650 0
M  V30 70 H -0.689204 0.951391 -0.872399 0
M  V30 END ATOM
M  V30 BEGIN BOND
M  V30 1 2 1 2
M  V30 2 1 2 3
M  V30 3 1 3 4
M  V30 4 1 4 5
M  V30 5 1 5 6
M  V30 6 1 6 7
M  V30 7 1 7 8
M  V30 8 1 8 9
M  V30 9 1 9 10
M  V30 10 1 10 11
M  V30 11 1 11 12
M  V30 12 1 12 13
M  V30 13 2 13 14
M  V30 14 1 14 15
M  V30 15 1 15 16
M  V30 16 2 16 17
M  V30 17 1 17 18
M  V30 18 2 18 19
M  V30 19 1 19 20
M  V30 20 1 20 21
M  V30 21 1 20 22
M  V30 22 1 20 23
M  V30 23 1 19 24
M  V30 24 2 24 25
M  V30 25 1 14 26
M  V30 26 2 26 27
M  V30 27 1 26 28
M  V30 28 2 28 29
M  V30 29 1 11 30
M  V30 30 2 30 31
M  V30 31 1 31 32
M  V30 32 2 32 33
M  V30 33 1 33 34
M  V30 34 2 34 35
M  V30 35 1 35 36
M  V30 36 2 36 37
M  V30 37 1 37 38
M  V30 38 1 38 39
M  V30 39 1 37 40
M  V30 40 2 40 41
M  V30 41 1 8 3
M  V30 42 1 28 13
M  V30 43 1 41 30
M  V30 44 1 10 5
M  V30 45 1 25 16
M  V30 46 1 41 34
M  V30 47 1 1 42
M  V30 48 1 1 43
M  V30 49 1 2 44
M  V30 50 1 3 45 CFG=3
M  V30 51 1 4 46
M  V30 52 1 4 47
M  V30 53 1 6 48
M  V30 54 1 6 49
M  V30 55 1 7 50
M  V30 56 1 7 51
M  V30 57 1 8 52 CFG=3
M  V30 58 1 9 53
M  V30 59 1 9 54
M  V30 60 1 10 55 CFG=1
M  V30 61 1 11 56 CFG=3
M  V30 62 1 12 57
M  V30 63 1 15 58
M  V30 64 1 17 59
M  V30 65 1 18 60
M  V30 66 1 24 61
M  V30 67 1 25 62
M  V30 68 1 31 63
M  V30 69 1 32 64
M  V30 70 1 35 65
M  V30 71 1 36 66
M  V30 72 1 39 67
M  V30 73 1 39 68
M  V30 74 1 39 69
M  V30 75 1 40 70
M  V30 END BOND
M  V30 END CTAB
M  END
>  <catalyst_id>  (1) 
CXSJHIJBMDWYPB_PWAJYCBGSA_NONE

>  <source_smiles>  (1) 
C=C[C@H]1CN2CC[C@H]1C[C@@H]2[C@H](Nc1c(Nc2ccc(C(F)(F)F)cc2)c(=O)c1=O)c1ccnc2ccc(OC)cc12

>  <axial_configuration>  (1) 
none

>  <inchikey>  (1) 
CXSJHIJBMDWYPB-PWAJYCBGSA-N

>  <build_source>  (1) 
smiles

>  <rdkit_version>  (1) 
2025.09.6

>  <random_seed>  (1) 
42

>  <generated_at>  (1) 
2026-05-19T12:37:11

$$$$
