catalyst47
     RDKit          3D

  0  0  0  0  0  0  0  0  0  0999 V3000
M  V30 BEGIN CTAB
M  V30 COUNTS 61 65 0 0 0
M  V30 BEGIN ATOM
M  V30 1 C 5.405100 0.480944 2.696169 0
M  V30 2 C 4.230350 0.240016 2.099605 0
M  V30 3 C 3.866555 0.735599 0.719365 0 CFG=1
M  V30 4 C 3.463284 -0.425385 -0.227700 0
M  V30 5 N 2.153868 -0.178152 -0.888899 0
M  V30 6 C 2.247820 1.100987 -1.626229 0
M  V30 7 C 2.530053 2.287342 -0.693442 0
M  V30 8 C 2.715148 1.770846 0.744788 0 CFG=1
M  V30 9 C 1.386905 1.096695 1.133895 0
M  V30 10 C 1.106797 -0.098622 0.187531 0 CFG=1
M  V30 11 C -0.358212 -0.138752 -0.373803 0 CFG=2
M  V30 12 O -0.747729 1.159404 -0.855020 0
M  V30 13 C -1.709154 1.087625 -1.905747 0
M  V30 14 C -2.231043 2.477304 -2.156181 0
M  V30 15 C -3.538861 2.827567 -1.793372 0
M  V30 16 C -4.014672 4.119897 -2.022691 0
M  V30 17 C -3.187369 5.074870 -2.611144 0
M  V30 18 C -1.882400 4.740543 -2.967912 0
M  V30 19 C -1.405491 3.448970 -2.739840 0
M  V30 20 C -1.336801 -0.621723 0.699190 0
M  V30 21 C -2.031624 0.320739 1.470904 0
M  V30 22 C -2.911658 -0.121812 2.435785 0
M  V30 23 N -3.146423 -1.422220 2.691906 0
M  V30 24 C -2.481227 -2.338420 1.972666 0
M  V30 25 C -2.723834 -3.675471 2.251071 0
M  V30 26 C -2.078502 -4.709607 1.565843 0
M  V30 27 C -1.159683 -4.405570 0.572645 0
M  V30 28 O -0.451999 -5.304249 -0.174740 0
M  V30 29 C -0.672348 -6.682979 0.096948 0
M  V30 30 C -0.902779 -3.064011 0.276176 0
M  V30 31 C -1.553500 -2.004818 0.958739 0
M  V30 32 H 6.183371 1.065217 2.215114 0
M  V30 33 H 5.611544 0.095810 3.690341 0
M  V30 34 H 3.489972 -0.353966 2.632427 0
M  V30 35 H 4.747058 1.229367 0.283378 0
M  V30 36 H 3.430766 -1.389741 0.296089 0
M  V30 37 H 4.234595 -0.549407 -0.999540 0
M  V30 38 H 3.047156 1.027169 -2.375326 0
M  V30 39 H 1.340999 1.279687 -2.212001 0
M  V30 40 H 3.430359 2.818588 -1.024144 0
M  V30 41 H 1.699829 3.002718 -0.734022 0
M  V30 42 H 2.938908 2.602357 1.422448 0
M  V30 43 H 0.588696 1.846048 1.098256 0
M  V30 44 H 1.427303 0.742846 2.170599 0
M  V30 45 H 1.228250 -1.017125 0.779359 0
M  V30 46 H -0.384820 -0.832391 -1.223571 0
M  V30 47 H -2.531819 0.414735 -1.636652 0
M  V30 48 H -1.235763 0.699447 -2.815379 0
M  V30 49 H -4.194873 2.096102 -1.326792 0
M  V30 50 H -5.030591 4.382278 -1.739363 0
M  V30 51 H -3.558152 6.081052 -2.787295 0
M  V30 52 H -1.234101 5.486377 -3.419917 0
M  V30 53 H -0.381992 3.200679 -3.011113 0
M  V30 54 H -1.895309 1.387992 1.320670 0
M  V30 55 H -3.469826 0.580468 3.048257 0
M  V30 56 H -3.440487 -3.922931 3.031646 0
M  V30 57 H -2.319249 -5.731084 1.839180 0
M  V30 58 H -0.033844 -7.262578 -0.576677 0
M  V30 59 H -0.387142 -6.933346 1.124110 0
M  V30 60 H -1.711337 -6.963609 -0.105038 0
M  V30 61 H -0.170072 -2.860318 -0.501549 0
M  V30 END ATOM
M  V30 BEGIN BOND
M  V30 1 2 1 2
M  V30 2 1 2 3
M  V30 3 1 3 4
M  V30 4 1 4 5
M  V30 5 1 5 6
M  V30 6 1 6 7
M  V30 7 1 7 8
M  V30 8 1 8 9
M  V30 9 1 9 10
M  V30 10 1 10 11
M  V30 11 1 11 12
M  V30 12 1 12 13
M  V30 13 1 13 14
M  V30 14 2 14 15
M  V30 15 1 15 16
M  V30 16 2 16 17
M  V30 17 1 17 18
M  V30 18 2 18 19
M  V30 19 1 11 20
M  V30 20 2 20 21
M  V30 21 1 21 22
M  V30 22 2 22 23
M  V30 23 1 23 24
M  V30 24 2 24 25
M  V30 25 1 25 26
M  V30 26 2 26 27
M  V30 27 1 27 28
M  V30 28 1 28 29
M  V30 29 1 27 30
M  V30 30 2 30 31
M  V30 31 1 8 3
M  V30 32 1 19 14
M  V30 33 1 31 20
M  V30 34 1 10 5
M  V30 35 1 31 24
M  V30 36 1 1 32
M  V30 37 1 1 33
M  V30 38 1 2 34
M  V30 39 1 3 35 CFG=3
M  V30 40 1 4 36
M  V30 41 1 4 37
M  V30 42 1 6 38
M  V30 43 1 6 39
M  V30 44 1 7 40
M  V30 45 1 7 41
M  V30 46 1 8 42 CFG=1
M  V30 47 1 9 43
M  V30 48 1 9 44
M  V30 49 1 10 45 CFG=1
M  V30 50 1 11 46 CFG=3
M  V30 51 1 13 47
M  V30 52 1 13 48
M  V30 53 1 15 49
M  V30 54 1 16 50
M  V30 55 1 17 51
M  V30 56 1 18 52
M  V30 57 1 19 53
M  V30 58 1 21 54
M  V30 59 1 22 55
M  V30 60 1 25 56
M  V30 61 1 26 57
M  V30 62 1 29 58
M  V30 63 1 29 59
M  V30 64 1 29 60
M  V30 65 1 30 61
M  V30 END BOND
M  V30 END CTAB
M  END
>  <catalyst_id>  (1) 
DVNBDXQSZYGJPC_LKSLQULUSA_NONE

>  <source_smiles>  (1) 
C=C[C@H]1CN2CC[C@H]1C[C@H]2[C@H](OCc1ccccc1)c1ccnc2ccc(OC)cc12

>  <axial_configuration>  (1) 
none

>  <inchikey>  (1) 
DVNBDXQSZYGJPC-LKSLQULUSA-N

>  <build_source>  (1) 
smiles

>  <rdkit_version>  (1) 
2025.09.6

>  <random_seed>  (1) 
42

>  <generated_at>  (1) 
2026-05-19T12:36:58

$$$$
