catalyst26
     RDKit          3D

  0  0  0  0  0  0  0  0  0  0999 V3000
M  V30 BEGIN CTAB
M  V30 COUNTS 21 21 0 0 0
M  V30 BEGIN ATOM
M  V30 1 C 3.203597 0.252114 -0.858021 0
M  V30 2 O 2.099945 0.370594 0.029143 0
M  V30 3 C 1.017253 -0.481329 -0.359087 0
M  V30 4 C -0.139777 -0.330281 0.649187 0 CFG=2
M  V30 5 C -1.364333 -1.154645 0.245705 0
M  V30 6 C -2.482270 -0.138987 0.053242 0
M  V30 7 C -1.753675 1.170389 -0.166112 0
M  V30 8 N -0.626479 1.059058 0.749839 0
M  V30 9 H 3.995753 0.922330 -0.513790 0
M  V30 10 H 2.913471 0.545414 -1.871504 0
M  V30 11 H 3.587631 -0.772502 -0.857151 0
M  V30 12 H 0.690271 -0.208970 -1.370044 0
M  V30 13 H 1.360584 -1.522662 -0.369627 0
M  V30 14 H 0.220864 -0.629982 1.639876 0
M  V30 15 H -1.636737 -1.879168 1.020715 0
M  V30 16 H -1.194353 -1.708268 -0.684795 0
M  V30 17 H -3.097154 -0.087002 0.960365 0
M  V30 18 H -3.136578 -0.398872 -0.784184 0
M  V30 19 H -1.407037 1.258553 -1.202134 0
M  V30 20 H -2.381425 2.034728 0.067189 0
M  V30 21 H 0.130450 1.699487 0.502134 0
M  V30 END ATOM
M  V30 BEGIN BOND
M  V30 1 1 1 2
M  V30 2 1 2 3
M  V30 3 1 3 4
M  V30 4 1 4 5
M  V30 5 1 5 6
M  V30 6 1 6 7
M  V30 7 1 7 8
M  V30 8 1 8 4
M  V30 9 1 1 9
M  V30 10 1 1 10
M  V30 11 1 1 11
M  V30 12 1 3 12
M  V30 13 1 3 13
M  V30 14 1 4 14 CFG=1
M  V30 15 1 5 15
M  V30 16 1 5 16
M  V30 17 1 6 17
M  V30 18 1 6 18
M  V30 19 1 7 19
M  V30 20 1 7 20
M  V30 21 1 8 21
M  V30 END BOND
M  V30 END CTAB
M  END
>  <catalyst_id>  (1) 
CHPRFKYDQRKRRK_LURJTMIESA_NONE

>  <source_smiles>  (1) 
COC[C@@H]1CCCN1

>  <axial_configuration>  (1) 
none

>  <inchikey>  (1) 
CHPRFKYDQRKRRK-LURJTMIESA-N

>  <build_source>  (1) 
smiles

>  <rdkit_version>  (1) 
2025.09.6

>  <random_seed>  (1) 
42

>  <generated_at>  (1) 
2026-05-19T12:29:44

$$$$
