catalyst400
     RDKit          3D

  0  0  0  0  0  0  0  0  0  0999 V3000
M  V30 BEGIN CTAB
M  V30 COUNTS 68 73 0 0 0
M  V30 BEGIN ATOM
M  V30 1 C -6.180640 -0.943854 1.027778 0
M  V30 2 C -5.260089 -0.221112 0.055802 0
M  V30 3 C -4.304968 -1.160801 -0.702392 0 CFG=1
M  V30 4 C -3.437014 -0.362670 -1.707850 0
M  V30 5 N -1.990276 -0.631137 -1.523781 0
M  V30 6 C -1.761373 -2.076056 -1.725564 0
M  V30 7 C -2.544450 -2.923405 -0.714402 0
M  V30 8 C -3.366946 -1.997736 0.201125 0 CFG=1
M  V30 9 C -2.358992 -1.082164 0.914613 0
M  V30 10 C -1.613062 -0.211861 -0.129976 0 CFG=1
M  V30 11 C -0.059770 -0.118329 0.107600 0 CFG=2
M  V30 12 O 0.469945 -1.439586 0.342076 0
M  V30 13 C 1.800562 -1.602258 0.010770 0
M  V30 14 C 2.294297 -2.889902 0.097761 0
M  V30 15 C 3.640385 -3.115528 -0.201645 0
M  V30 16 C 4.182129 -4.515256 -0.112943 0
M  V30 17 C 4.449902 -2.015110 -0.575638 0
M  V30 18 C 5.822982 -2.123402 -0.897082 0
M  V30 19 C 6.570678 -1.002107 -1.255596 0
M  V30 20 C 5.960336 0.243223 -1.298255 0
M  V30 21 C 4.605268 0.359695 -0.983184 0
M  V30 22 C 3.838273 -0.740123 -0.624741 0
M  V30 23 N 2.544053 -0.539086 -0.338850 0
M  V30 24 C 0.228246 0.822608 1.286335 0
M  V30 25 C 0.398126 0.288893 2.571512 0
M  V30 26 C 0.642492 1.145362 3.624900 0
M  V30 27 N 0.718900 2.483157 3.500067 0
M  V30 28 C 0.558235 3.011519 2.277625 0
M  V30 29 C 0.641023 4.391138 2.159564 0
M  V30 30 C 0.481144 5.046725 0.934955 0
M  V30 31 C 0.229874 4.307253 -0.210904 0
M  V30 32 O 0.048439 4.807231 -1.469738 0
M  V30 33 C 0.145915 6.217649 -1.622705 0
M  V30 34 C 0.143758 2.915621 -0.112344 0
M  V30 35 C 0.305768 2.235910 1.122241 0
M  V30 36 H -6.912837 -0.243064 1.441831 0
M  V30 37 H -5.623010 -1.370190 1.866619 0
M  V30 38 H -6.728017 -1.748845 0.527568 0
M  V30 39 H -5.883711 0.307728 -0.676249 0
M  V30 40 H -4.700854 0.550433 0.597089 0
M  V30 41 H -4.926018 -1.861681 -1.278324 0
M  V30 42 H -3.618856 0.716933 -1.631985 0
M  V30 43 H -3.727391 -0.627493 -2.733048 0
M  V30 44 H -2.061269 -2.352451 -2.744897 0
M  V30 45 H -0.693865 -2.312505 -1.681207 0
M  V30 46 H -3.207924 -3.619396 -1.241345 0
M  V30 47 H -1.851683 -3.527293 -0.116010 0
M  V30 48 H -3.926219 -2.599232 0.924074 0
M  V30 49 H -2.874703 -0.434670 1.633074 0
M  V30 50 H -1.672651 -1.703710 1.499770 0
M  V30 51 H -1.993338 0.814601 -0.026120 0
M  V30 52 H 0.379608 0.287171 -0.811994 0
M  V30 53 H 1.635408 -3.698841 0.393817 0
M  V30 54 H 3.406937 -5.228450 0.187584 0
M  V30 55 H 4.982249 -4.567406 0.632372 0
M  V30 56 H 4.564213 -4.838304 -1.086635 0
M  V30 57 H 6.325557 -3.086970 -0.870132 0
M  V30 58 H 7.625133 -1.103172 -1.498938 0
M  V30 59 H 6.530390 1.126248 -1.574278 0
M  V30 60 H 4.131912 1.338873 -1.016505 0
M  V30 61 H 0.351133 -0.779329 2.754847 0
M  V30 62 H 0.787431 0.765468 4.631974 0
M  V30 63 H 0.836728 4.978846 3.054026 0
M  V30 64 H 0.558813 6.128123 0.920994 0
M  V30 65 H -0.631255 6.731390 -1.047271 0
M  V30 66 H 1.143595 6.576670 -1.349087 0
M  V30 67 H -0.013541 6.451079 -2.679823 0
M  V30 68 H -0.055110 2.364937 -1.028923 0
M  V30 END ATOM
M  V30 BEGIN BOND
M  V30 1 1 1 2
M  V30 2 1 2 3
M  V30 3 1 3 4
M  V30 4 1 4 5
M  V30 5 1 5 6
M  V30 6 1 6 7
M  V30 7 1 7 8
M  V30 8 1 8 9
M  V30 9 1 9 10
M  V30 10 1 10 11
M  V30 11 1 11 12
M  V30 12 1 12 13
M  V30 13 2 13 14
M  V30 14 1 14 15
M  V30 15 1 15 16
M  V30 16 2 15 17
M  V30 17 1 17 18
M  V30 18 2 18 19
M  V30 19 1 19 20
M  V30 20 2 20 21
M  V30 21 1 21 22
M  V30 22 2 22 23
M  V30 23 1 11 24
M  V30 24 2 24 25
M  V30 25 1 25 26
M  V30 26 2 26 27
M  V30 27 1 27 28
M  V30 28 2 28 29
M  V30 29 1 29 30
M  V30 30 2 30 31
M  V30 31 1 31 32
M  V30 32 1 32 33
M  V30 33 1 31 34
M  V30 34 2 34 35
M  V30 35 1 8 3
M  V30 36 1 23 13
M  V30 37 1 35 24
M  V30 38 1 10 5
M  V30 39 1 22 17
M  V30 40 1 35 28
M  V30 41 1 1 36
M  V30 42 1 1 37
M  V30 43 1 1 38
M  V30 44 1 2 39
M  V30 45 1 2 40
M  V30 46 1 3 41 CFG=3
M  V30 47 1 4 42
M  V30 48 1 4 43
M  V30 49 1 6 44
M  V30 50 1 6 45
M  V30 51 1 7 46
M  V30 52 1 7 47
M  V30 53 1 8 48 CFG=1
M  V30 54 1 9 49
M  V30 55 1 9 50
M  V30 56 1 10 51 CFG=1
M  V30 57 1 11 52 CFG=3
M  V30 58 1 14 53
M  V30 59 1 16 54
M  V30 60 1 16 55
M  V30 61 1 16 56
M  V30 62 1 18 57
M  V30 63 1 19 58
M  V30 64 1 20 59
M  V30 65 1 21 60
M  V30 66 1 25 61
M  V30 67 1 26 62
M  V30 68 1 29 63
M  V30 69 1 30 64
M  V30 70 1 33 65
M  V30 71 1 33 66
M  V30 72 1 33 67
M  V30 73 1 34 68
M  V30 END BOND
M  V30 END CTAB
M  END
>  <catalyst_id>  (1) 
XNLQXNDAUCSSKU_SZGTYURGSA_NONE

>  <source_smiles>  (1) 
CC[C@H]1CN2CC[C@H]1C[C@H]2[C@H](Oc1cc(C)c2ccccc2n1)c1ccnc2ccc(OC)cc12

>  <axial_configuration>  (1) 
none

>  <inchikey>  (1) 
XNLQXNDAUCSSKU-SZGTYURGSA-N

>  <build_source>  (1) 
smiles

>  <rdkit_version>  (1) 
2025.09.6

>  <random_seed>  (1) 
42

>  <generated_at>  (1) 
2026-05-19T12:29:48

$$$$
