catalyst239
     RDKit          3D

  0  0  0  0  0  0  0  0  0  0999 V3000
M  V30 BEGIN CTAB
M  V30 COUNTS 38 40 0 0 0
M  V30 BEGIN ATOM
M  V30 1 O 0.390493 0.271475 2.205613 0
M  V30 2 C 0.211401 0.031857 0.782361 0
M  V30 3 C 0.037769 1.447085 0.203303 0
M  V30 4 C 1.000719 2.429533 0.526936 0
M  V30 5 C 0.918711 3.732245 0.030841 0
M  V30 6 C -0.131184 4.088807 -0.806325 0
M  V30 7 C -1.093544 3.142545 -1.144123 0
M  V30 8 C -1.009512 1.836704 -0.645866 0
M  V30 9 C 1.478593 -0.667965 0.254926 0
M  V30 10 C 1.845722 -0.591813 -1.101929 0
M  V30 11 C 2.976778 -1.257555 -1.581196 0
M  V30 12 C 3.759645 -2.016717 -0.716084 0
M  V30 13 C 3.413276 -2.110823 0.628654 0
M  V30 14 C 2.282942 -1.445281 1.108771 0
M  V30 15 C -0.990528 -0.988538 0.717058 0 CFG=2
M  V30 16 C -1.431628 -1.508449 -0.653207 0
M  V30 17 C -2.952374 -1.569213 -0.580361 0
M  V30 18 C -3.278576 -1.417273 0.892919 0
M  V30 19 N -2.232859 -0.525269 1.404913 0
M  V30 20 H -0.513508 0.229872 2.575899 0
M  V30 21 H 1.832120 2.170532 1.183226 0
M  V30 22 H 1.676144 4.462774 0.301926 0
M  V30 23 H -0.199264 5.101336 -1.194395 0
M  V30 24 H -1.915005 3.419885 -1.800340 0
M  V30 25 H -1.787282 1.146654 -0.949254 0
M  V30 26 H 1.257384 -0.003770 -1.803299 0
M  V30 27 H 3.247419 -1.178992 -2.630920 0
M  V30 28 H 4.640969 -2.531740 -1.088441 0
M  V30 29 H 4.023198 -2.699814 1.308560 0
M  V30 30 H 2.033572 -1.532854 2.164968 0
M  V30 31 H -0.677017 -1.869703 1.299573 0
M  V30 32 H -1.024124 -2.512764 -0.820021 0
M  V30 33 H -1.114285 -0.889145 -1.495577 0
M  V30 34 H -3.383160 -0.737339 -1.150358 0
M  V30 35 H -3.347118 -2.500511 -0.997691 0
M  V30 36 H -4.277400 -1.001342 1.054472 0
M  V30 37 H -3.225169 -2.383794 1.407133 0
M  V30 38 H -2.443321 0.429358 1.107335 0
M  V30 END ATOM
M  V30 BEGIN BOND
M  V30 1 1 1 2
M  V30 2 1 2 3
M  V30 3 2 3 4
M  V30 4 1 4 5
M  V30 5 2 5 6
M  V30 6 1 6 7
M  V30 7 2 7 8
M  V30 8 1 2 9
M  V30 9 2 9 10
M  V30 10 1 10 11
M  V30 11 2 11 12
M  V30 12 1 12 13
M  V30 13 2 13 14
M  V30 14 1 2 15
M  V30 15 1 15 16
M  V30 16 1 16 17
M  V30 17 1 17 18
M  V30 18 1 18 19
M  V30 19 1 8 3
M  V30 20 1 14 9
M  V30 21 1 19 15
M  V30 22 1 1 20
M  V30 23 1 4 21
M  V30 24 1 5 22
M  V30 25 1 6 23
M  V30 26 1 7 24
M  V30 27 1 8 25
M  V30 28 1 10 26
M  V30 29 1 11 27
M  V30 30 1 12 28
M  V30 31 1 13 29
M  V30 32 1 14 30
M  V30 33 1 15 31 CFG=1
M  V30 34 1 16 32
M  V30 35 1 16 33
M  V30 36 1 17 34
M  V30 37 1 17 35
M  V30 38 1 18 36
M  V30 39 1 18 37
M  V30 40 1 19 38
M  V30 END BOND
M  V30 END CTAB
M  END
>  <catalyst_id>  (1) 
OGCGXUGBDJGFFY_INIZCTEOSA_NONE

>  <source_smiles>  (1) 
OC(c1ccccc1)(c1ccccc1)[C@@H]1CCCN1

>  <axial_configuration>  (1) 
none

>  <inchikey>  (1) 
OGCGXUGBDJGFFY-INIZCTEOSA-N

>  <build_source>  (1) 
smiles

>  <rdkit_version>  (1) 
2025.09.6

>  <random_seed>  (1) 
42

>  <generated_at>  (1) 
2026-05-19T12:36:58

$$$$
