catalyst76
     RDKit          3D

  0  0  0  0  0  0  0  0  0  0999 V3000
M  V30 BEGIN CTAB
M  V30 COUNTS 35 34 0 0 0
M  V30 BEGIN ATOM
M  V30 1 C -3.192272 -1.223184 -0.033611 0
M  V30 2 C -2.047540 -0.324959 0.472394 0
M  V30 3 C -2.343479 1.151962 0.139931 0
M  V30 4 C -1.872035 -0.494162 1.995533 0
M  V30 5 Si -0.271436 -0.871143 -0.463312 0 VAL=4
M  V30 6 C 0.044820 -2.671603 -0.048529 0
M  V30 7 C -0.528254 -0.662104 -2.308373 0
M  V30 8 O 0.932906 0.137287 0.126979 0
M  V30 9 C 2.278014 -0.029614 -0.343655 0
M  V30 10 C 3.182237 1.020143 0.321538 0 CFG=2
M  V30 11 N 3.035536 0.978257 1.803495 0
M  V30 12 C 2.846020 2.406550 -0.236705 0
M  V30 13 O 2.671838 2.696272 -1.410393 0
M  V30 14 O 2.808132 3.375857 0.708718 0
M  V30 15 H -3.003392 -2.279852 0.185035 0
M  V30 16 H -3.333684 -1.126245 -1.115568 0
M  V30 17 H -4.138756 -0.951559 0.447686 0
M  V30 18 H -2.476344 1.303960 -0.936945 0
M  V30 19 H -3.262865 1.484241 0.635368 0
M  V30 20 H -1.531839 1.809547 0.471723 0
M  V30 21 H -1.048064 0.120117 2.376322 0
M  V30 22 H -2.782445 -0.193583 2.526516 0
M  V30 23 H -1.662902 -1.535608 2.263987 0
M  V30 24 H 0.956769 -3.024405 -0.539364 0
M  V30 25 H -0.783807 -3.301849 -0.383695 0
M  V30 26 H 0.166051 -2.807489 1.029926 0
M  V30 27 H -1.362528 -1.275997 -2.659479 0
M  V30 28 H -0.740941 0.381734 -2.556194 0
M  V30 29 H 0.367998 -0.965093 -2.857863 0
M  V30 30 H 2.636779 -1.032009 -0.075685 0
M  V30 31 H 2.312318 0.075691 -1.435415 0
M  V30 32 H 4.232308 0.828396 0.076213 0
M  V30 33 H 3.291489 1.907118 2.152063 0
M  V30 34 H 2.029254 0.907944 1.986825 0
M  V30 35 H 2.590110 4.185382 0.200625 0
M  V30 END ATOM
M  V30 BEGIN BOND
M  V30 1 1 1 2
M  V30 2 1 2 3
M  V30 3 1 2 4
M  V30 4 1 2 5
M  V30 5 1 5 6
M  V30 6 1 5 7
M  V30 7 1 5 8
M  V30 8 1 8 9
M  V30 9 1 9 10
M  V30 10 1 10 11
M  V30 11 1 10 12
M  V30 12 2 12 13
M  V30 13 1 12 14
M  V30 14 1 1 15
M  V30 15 1 1 16
M  V30 16 1 1 17
M  V30 17 1 3 18
M  V30 18 1 3 19
M  V30 19 1 3 20
M  V30 20 1 4 21
M  V30 21 1 4 22
M  V30 22 1 4 23
M  V30 23 1 6 24
M  V30 24 1 6 25
M  V30 25 1 6 26
M  V30 26 1 7 27
M  V30 27 1 7 28
M  V30 28 1 7 29
M  V30 29 1 9 30
M  V30 30 1 9 31
M  V30 31 1 10 32 CFG=1
M  V30 32 1 11 33
M  V30 33 1 11 34
M  V30 34 1 14 35
M  V30 END BOND
M  V30 END CTAB
M  END
>  <catalyst_id>  (1) 
GCHZIDHLCYJWEH_ZETCQYMHSA_NONE

>  <source_smiles>  (1) 
CC(C)(C)[Si](C)(C)OC[C@H](N)C(=O)O

>  <axial_configuration>  (1) 
none

>  <inchikey>  (1) 
GCHZIDHLCYJWEH-ZETCQYMHSA-N

>  <build_source>  (1) 
smiles

>  <rdkit_version>  (1) 
2025.09.6

>  <random_seed>  (1) 
42

>  <generated_at>  (1) 
2026-05-19T12:29:58

$$$$
