catalyst157
     RDKit          3D

  0  0  0  0  0  0  0  0  0  0999 V3000
M  V30 BEGIN CTAB
M  V30 COUNTS 44 47 0 0 0
M  V30 BEGIN ATOM
M  V30 1 C 4.644325 0.370661 -1.890529 0
M  V30 2 C 3.548997 0.391551 -1.119966 0
M  V30 3 C 3.159492 -0.722295 -0.176629 0 CFG=1
M  V30 4 C 2.985443 -0.221250 1.283271 0
M  V30 5 N 1.627499 -0.517877 1.819668 0
M  V30 6 C 1.437592 -1.987952 1.800377 0
M  V30 7 C 1.610149 -2.577829 0.392503 0
M  V30 8 C 1.854605 -1.436312 -0.610867 0 CFG=1
M  V30 9 C 0.642822 -0.492504 -0.491091 0
M  V30 10 C 0.631727 0.152612 0.909946 0 CFG=1
M  V30 11 C -0.783816 0.215937 1.567553 0 CFG=1
M  V30 12 O -0.619662 0.660805 2.926849 0
M  V30 13 C -1.728981 1.171402 0.860470 0
M  V30 14 C -1.536973 2.549369 1.043894 0
M  V30 15 C -2.357450 3.437705 0.381945 0
M  V30 16 N -3.343712 3.061818 -0.452054 0
M  V30 17 C -3.552810 1.748975 -0.631417 0
M  V30 18 C -4.582711 1.379287 -1.485453 0
M  V30 19 C -4.889264 0.043150 -1.742139 0
M  V30 20 C -4.150552 -0.955601 -1.129068 0
M  V30 21 C -3.108724 -0.611521 -0.266586 0
M  V30 22 C -2.779834 0.742392 0.000593 0
M  V30 23 H 4.875518 1.203194 -2.548690 0
M  V30 24 H 5.332291 -0.469174 -1.888489 0
M  V30 25 H 2.900092 1.264319 -1.166692 0
M  V30 26 H 3.963814 -1.472036 -0.173443 0
M  V30 27 H 3.734539 -0.701676 1.926733 0
M  V30 28 H 3.183255 0.854956 1.371576 0
M  V30 29 H 0.450413 -2.248509 2.198766 0
M  V30 30 H 2.153725 -2.456698 2.487226 0
M  V30 31 H 0.713325 -3.143358 0.112468 0
M  V30 32 H 2.451921 -3.280423 0.378547 0
M  V30 33 H 1.936035 -1.834685 -1.628357 0
M  V30 34 H 0.683255 0.287140 -1.260249 0
M  V30 35 H -0.269880 -1.068942 -0.674369 0
M  V30 36 H 0.970154 1.194151 0.808617 0
M  V30 37 H -1.215460 -0.783673 1.647577 0
M  V30 38 H 0.249256 0.294362 3.194163 0
M  V30 39 H -0.761809 2.923689 1.706252 0
M  V30 40 H -2.238834 4.509830 0.507850 0
M  V30 41 H -5.168376 2.160614 -1.965208 0
M  V30 42 H -5.704958 -0.207670 -2.414656 0
M  V30 43 H -4.383593 -2.000804 -1.315438 0
M  V30 44 H -2.562846 -1.427127 0.197460 0
M  V30 END ATOM
M  V30 BEGIN BOND
M  V30 1 2 1 2
M  V30 2 1 2 3
M  V30 3 1 3 4
M  V30 4 1 4 5
M  V30 5 1 5 6
M  V30 6 1 6 7
M  V30 7 1 7 8
M  V30 8 1 8 9
M  V30 9 1 9 10
M  V30 10 1 10 11
M  V30 11 1 11 12
M  V30 12 1 11 13
M  V30 13 2 13 14
M  V30 14 1 14 15
M  V30 15 2 15 16
M  V30 16 1 16 17
M  V30 17 2 17 18
M  V30 18 1 18 19
M  V30 19 2 19 20
M  V30 20 1 20 21
M  V30 21 2 21 22
M  V30 22 1 8 3
M  V30 23 1 22 13
M  V30 24 1 10 5
M  V30 25 1 22 17
M  V30 26 1 1 23
M  V30 27 1 1 24
M  V30 28 1 2 25
M  V30 29 1 3 26 CFG=1
M  V30 30 1 4 27
M  V30 31 1 4 28
M  V30 32 1 6 29
M  V30 33 1 6 30
M  V30 34 1 7 31
M  V30 35 1 7 32
M  V30 36 1 8 33 CFG=3
M  V30 37 1 9 34
M  V30 38 1 9 35
M  V30 39 1 10 36 CFG=3
M  V30 40 1 11 37 CFG=1
M  V30 41 1 12 38
M  V30 42 1 14 39
M  V30 43 1 15 40
M  V30 44 1 18 41
M  V30 45 1 19 42
M  V30 46 1 20 43
M  V30 47 1 21 44
M  V30 END BOND
M  V30 END CTAB
M  END
>  <catalyst_id>  (1) 
KMPWYEUPVWOPIM_LSOMNZGLSA_NONE

>  <source_smiles>  (1) 
C=C[C@H]1CN2CC[C@H]1C[C@H]2[C@@H](O)c1ccnc2ccccc12

>  <axial_configuration>  (1) 
none

>  <inchikey>  (1) 
KMPWYEUPVWOPIM-LSOMNZGLSA-N

>  <build_source>  (1) 
smiles

>  <rdkit_version>  (1) 
2025.09.6

>  <random_seed>  (1) 
42

>  <generated_at>  (1) 
2026-05-19T12:34:44

$$$$
