catalyst368
     RDKit          3D

  0  0  0  0  0  0  0  0  0  0999 V3000
M  V30 BEGIN CTAB
M  V30 COUNTS 83 84 0 0 0
M  V30 BEGIN ATOM
M  V30 1 C 2.366560 2.142239 -2.179675 0
M  V30 2 C 1.647361 1.053968 -1.388350 0 CFG=1
M  V30 3 C 2.233559 -0.350736 -1.671344 0
M  V30 4 N 1.766127 -1.401820 -0.737902 0
M  V30 5 C 0.486691 -1.595404 -0.308866 0
M  V30 6 N -0.585904 -1.357387 -1.121920 0 CHG=1
M  V30 7 C -0.546518 -1.443319 -2.599168 0
M  V30 8 C -1.905541 -1.868228 -3.210651 0 CFG=2
M  V30 9 C -1.730595 -2.212068 -4.688923 0
M  V30 10 N -2.914175 -0.800137 -3.081715 0
M  V30 11 C -3.810403 -0.573981 -2.048884 0
M  V30 12 S -3.881466 -1.519370 -0.674470 0
M  V30 13 N -4.623163 0.504021 -2.368318 0
M  V30 14 C -5.452311 1.304752 -1.549426 0
M  V30 15 C -5.234563 1.510422 -0.186541 0
M  V30 16 C -6.074178 2.351118 0.566836 0
M  V30 17 C -5.829937 2.537288 2.046787 0
M  V30 18 F -6.497614 1.623328 2.799508 0
M  V30 19 F -4.514168 2.410529 2.381187 0
M  V30 20 F -6.213240 3.761030 2.499864 0
M  V30 21 C -7.148103 2.990502 -0.068943 0
M  V30 22 C -7.373052 2.815380 -1.441770 0
M  V30 23 C -8.504003 3.537393 -2.138098 0
M  V30 24 F -9.558804 3.794171 -1.319608 0
M  V30 25 F -9.004721 2.836115 -3.192156 0
M  V30 26 F -8.107702 4.737845 -2.639646 0
M  V30 27 C -6.505609 1.984801 -2.173025 0
M  V30 28 N 0.284745 -2.073221 0.957220 0
M  V30 29 C -1.030135 -2.182165 1.640096 0
M  V30 30 C -0.691054 -2.406700 3.110089 0
M  V30 31 C 0.622767 -3.170187 3.052775 0
M  V30 32 C 1.356263 -2.514527 1.888723 0
M  V30 33 N 1.545632 1.374138 0.041913 0
M  V30 34 C 2.444108 1.320586 1.068934 0
M  V30 35 S 1.819813 1.650092 2.579763 0
M  V30 36 N 3.729527 1.003981 0.722786 0
M  V30 37 C 4.816432 0.558789 1.511115 0
M  V30 38 C 6.102633 0.746124 0.989026 0
M  V30 39 C 7.245419 0.310606 1.683755 0
M  V30 40 C 8.620812 0.524165 1.092793 0
M  V30 41 F 9.608520 0.558863 2.025077 0
M  V30 42 F 8.714514 1.687757 0.393053 0
M  V30 43 F 8.951362 -0.465603 0.219737 0
M  V30 44 C 7.083671 -0.357332 2.905437 0
M  V30 45 C 5.803937 -0.583015 3.430737 0
M  V30 46 C 5.612491 -1.309027 4.743366 0
M  V30 47 F 4.559013 -2.174549 4.695723 0
M  V30 48 F 6.689698 -2.054969 5.106590 0
M  V30 49 F 5.361598 -0.463474 5.775590 0
M  V30 50 C 4.680001 -0.114277 2.725140 0
M  V30 51 Cl 0.000000 0.000000 0.000000 0 CHG=-1
M  V30 52 H 3.430174 2.204854 -1.936018 0
M  V30 53 H 1.924003 3.123625 -1.977202 0
M  V30 54 H 2.284466 1.950534 -3.254843 0
M  V30 55 H 0.605191 1.061474 -1.722417 0
M  V30 56 H 3.323237 -0.318931 -1.558176 0
M  V30 57 H 2.057401 -0.675955 -2.700839 0
M  V30 58 H 2.490318 -1.829118 -0.178227 0
M  V30 59 H -1.506058 -1.404834 -0.691202 0
M  V30 60 H -0.272776 -0.463321 -2.997190 0
M  V30 61 H 0.212167 -2.185151 -2.870714 0
M  V30 62 H -2.268026 -2.761557 -2.691386 0
M  V30 63 H -2.685459 -2.517294 -5.130788 0
M  V30 64 H -1.019709 -3.034575 -4.818607 0
M  V30 65 H -1.363841 -1.349935 -5.257129 0
M  V30 66 H -2.856959 -0.057464 -3.769147 0
M  V30 67 H -4.825265 0.573626 -3.359519 0
M  V30 68 H -4.388736 1.056019 0.320545 0
M  V30 69 H -7.810497 3.638384 0.509164 0
M  V30 70 H -6.683762 1.860528 -3.241090 0
M  V30 71 H -1.596621 -1.256406 1.516152 0
M  V30 72 H -1.562762 -3.040771 1.221172 0
M  V30 73 H -0.535337 -1.442100 3.607477 0
M  V30 74 H -1.477641 -2.945833 3.644579 0
M  V30 75 H 1.189159 -3.119730 3.986535 0
M  V30 76 H 0.427807 -4.224405 2.823754 0
M  V30 77 H 2.019770 -3.229165 1.393793 0
M  V30 78 H 1.910908 -1.633940 2.217419 0
M  V30 79 H 0.647751 1.740745 0.350934 0
M  V30 80 H 4.008207 1.410013 -0.159402 0
M  V30 81 H 6.241009 1.257771 0.036585 0
M  V30 82 H 7.962577 -0.708694 3.450311 0
M  V30 83 H 3.703010 -0.316900 3.152774 0
M  V30 END ATOM
M  V30 BEGIN BOND
M  V30 1 1 1 2
M  V30 2 1 2 3
M  V30 3 1 3 4
M  V30 4 1 4 5
M  V30 5 2 5 6
M  V30 6 1 6 7
M  V30 7 1 7 8
M  V30 8 1 8 9
M  V30 9 1 8 10
M  V30 10 1 10 11
M  V30 11 2 11 12
M  V30 12 1 11 13
M  V30 13 1 13 14
M  V30 14 2 14 15
M  V30 15 1 15 16
M  V30 16 1 16 17
M  V30 17 1 17 18
M  V30 18 1 17 19
M  V30 19 1 17 20
M  V30 20 2 16 21
M  V30 21 1 21 22
M  V30 22 1 22 23
M  V30 23 1 23 24
M  V30 24 1 23 25
M  V30 25 1 23 26
M  V30 26 2 22 27
M  V30 27 1 5 28
M  V30 28 1 28 29
M  V30 29 1 29 30
M  V30 30 1 30 31
M  V30 31 1 31 32
M  V30 32 1 2 33
M  V30 33 1 33 34
M  V30 34 2 34 35
M  V30 35 1 34 36
M  V30 36 1 36 37
M  V30 37 2 37 38
M  V30 38 1 38 39
M  V30 39 1 39 40
M  V30 40 1 40 41
M  V30 41 1 40 42
M  V30 42 1 40 43
M  V30 43 2 39 44
M  V30 44 1 44 45
M  V30 45 1 45 46
M  V30 46 1 46 47
M  V30 47 1 46 48
M  V30 48 1 46 49
M  V30 49 2 45 50
M  V30 50 1 27 14
M  V30 51 1 32 28
M  V30 52 1 50 37
M  V30 53 1 1 52
M  V30 54 1 1 53
M  V30 55 1 1 54
M  V30 56 1 2 55 CFG=3
M  V30 57 1 3 56
M  V30 58 1 3 57
M  V30 59 1 4 58
M  V30 60 1 6 59
M  V30 61 1 7 60
M  V30 62 1 7 61
M  V30 63 1 8 62 CFG=1
M  V30 64 1 9 63
M  V30 65 1 9 64
M  V30 66 1 9 65
M  V30 67 1 10 66
M  V30 68 1 13 67
M  V30 69 1 15 68
M  V30 70 1 21 69
M  V30 71 1 27 70
M  V30 72 1 29 71
M  V30 73 1 29 72
M  V30 74 1 30 73
M  V30 75 1 30 74
M  V30 76 1 31 75
M  V30 77 1 31 76
M  V30 78 1 32 77
M  V30 79 1 32 78
M  V30 80 1 33 79
M  V30 81 1 36 80
M  V30 82 1 38 81
M  V30 83 1 44 82
M  V30 84 1 50 83
M  V30 END BOND
M  V30 END CTAB
M  END
>  <catalyst_id>  (1) 
VPOOKOUMZPSVGG_MOGJOVFKSA_NONE

>  <source_smiles>  (1) 
C[C@@H](CNC(=[NH+]C[C@H](C)NC(=S)Nc1cc(C(F)(F)F)cc(C(F)(F)F)c1)N1CCCC1)NC(=S)Nc1cc(C(F)(F)F)cc(C(F)(F)F)c1.[Cl-]

>  <axial_configuration>  (1) 
none

>  <inchikey>  (1) 
VPOOKOUMZPSVGG-MOGJOVFKSA-N

>  <build_source>  (1) 
smiles

>  <rdkit_version>  (1) 
2025.09.6

>  <random_seed>  (1) 
42

>  <generated_at>  (1) 
2026-05-19T12:31:57

$$$$
