catalyst220
     RDKit          3D

  0  0  0  0  0  0  0  0  0  0999 V3000
M  V30 BEGIN CTAB
M  V30 COUNTS 31 32 0 0 0
M  V30 BEGIN ATOM
M  V30 1 O 0.405958 -1.807982 0.307097 0
M  V30 2 C -0.425059 -0.949119 0.046941 0
M  V30 3 N -0.217371 0.083007 -0.877377 0
M  V30 4 S 1.114576 0.321505 -1.815116 0
M  V30 5 O 0.856862 1.531921 -2.569429 0
M  V30 6 O 1.454736 -0.909685 -2.492355 0
M  V30 7 C 2.378106 0.697718 -0.626738 0
M  V30 8 C 2.568229 2.021516 -0.216893 0
M  V30 9 C 3.580330 2.319332 0.695946 0
M  V30 10 C 4.400123 1.301464 1.186800 0
M  V30 11 C 4.215543 -0.016053 0.763816 0
M  V30 12 C 3.207173 -0.321341 -0.150194 0
M  V30 13 C -1.820548 -0.922633 0.692780 0 CFG=2
M  V30 14 C -2.736479 -1.960751 0.047611 0
M  V30 15 C -3.822005 -1.146745 -0.635513 0
M  V30 16 C -3.886517 0.112870 0.200327 0
M  V30 17 N -2.477513 0.400798 0.473515 0
M  V30 18 H -0.971040 0.764434 -0.975235 0
M  V30 19 H 1.941909 2.820605 -0.606556 0
M  V30 20 H 3.736458 3.345446 1.019879 0
M  V30 21 H 5.190362 1.535989 1.896111 0
M  V30 22 H 4.859180 -0.805805 1.143761 0
M  V30 23 H 3.066454 -1.349842 -0.477990 0
M  V30 24 H -1.706351 -1.112993 1.766059 0
M  V30 25 H -3.189520 -2.584495 0.827818 0
M  V30 26 H -2.231896 -2.622373 -0.663868 0
M  V30 27 H -3.522986 -0.910348 -1.664195 0
M  V30 28 H -4.777760 -1.677617 -0.670083 0
M  V30 29 H -4.367940 0.937912 -0.331591 0
M  V30 30 H -4.427625 -0.066626 1.136688 0
M  V30 31 H -2.395391 0.969891 1.317982 0
M  V30 END ATOM
M  V30 BEGIN BOND
M  V30 1 2 1 2
M  V30 2 1 2 3
M  V30 3 1 3 4
M  V30 4 2 4 5
M  V30 5 2 4 6
M  V30 6 1 4 7
M  V30 7 2 7 8
M  V30 8 1 8 9
M  V30 9 2 9 10
M  V30 10 1 10 11
M  V30 11 2 11 12
M  V30 12 1 2 13
M  V30 13 1 13 14
M  V30 14 1 14 15
M  V30 15 1 15 16
M  V30 16 1 16 17
M  V30 17 1 12 7
M  V30 18 1 17 13
M  V30 19 1 3 18
M  V30 20 1 8 19
M  V30 21 1 9 20
M  V30 22 1 10 21
M  V30 23 1 11 22
M  V30 24 1 12 23
M  V30 25 1 13 24 CFG=1
M  V30 26 1 14 25
M  V30 27 1 14 26
M  V30 28 1 15 27
M  V30 29 1 15 28
M  V30 30 1 16 29
M  V30 31 1 16 30
M  V30 32 1 17 31
M  V30 END BOND
M  V30 END CTAB
M  END
>  <catalyst_id>  (1) 
NMTZACKICMFJBK_JTQLQIEISA_NONE

>  <source_smiles>  (1) 
O=C(NS(=O)(=O)c1ccccc1)[C@@H]1CCCN1

>  <axial_configuration>  (1) 
none

>  <inchikey>  (1) 
NMTZACKICMFJBK-JTQLQIEISA-N

>  <build_source>  (1) 
smiles

>  <rdkit_version>  (1) 
2025.09.6

>  <random_seed>  (1) 
42

>  <generated_at>  (1) 
2026-05-19T12:29:45

$$$$
