catalyst189
     RDKit          3D

  0  0  0  0  0  0  0  0  0  0999 V3000
M  V30 BEGIN CTAB
M  V30 COUNTS 69 73 0 0 0
M  V30 BEGIN ATOM
M  V30 1 C -3.943997 4.120079 -2.239960 0
M  V30 2 C -3.394290 3.156703 -1.489175 0
M  V30 3 C -2.771132 3.396163 -0.133511 0 CFG=1
M  V30 4 C -3.407022 2.506455 0.972738 0
M  V30 5 N -2.389218 1.647958 1.648038 0
M  V30 6 C -1.408223 2.559408 2.282787 0
M  V30 7 C -0.726880 3.492139 1.272550 0
M  V30 8 C -1.238312 3.160487 -0.138081 0 CFG=1
M  V30 9 C -0.904799 1.674590 -0.366600 0
M  V30 10 C -1.763590 0.798369 0.578757 0 CFG=1
M  V30 11 C -1.021395 -0.528945 1.010152 0 CFG=1
M  V30 12 N 0.008688 -0.341659 2.037175 0
M  V30 13 C 1.350549 -0.162687 1.903873 0
M  V30 14 S 2.180947 0.485753 3.198317 0
M  V30 15 N 1.885413 -0.523565 0.700991 0
M  V30 16 C 3.279691 -0.363506 0.289279 0
M  V30 17 C 3.568723 1.049031 -0.225377 0
M  V30 18 C 4.998883 1.193020 -0.680999 0
M  V30 19 C 6.009028 1.482489 0.246378 0
M  V30 20 C 7.336679 1.596580 -0.167672 0
M  V30 21 C 7.666836 1.419472 -1.509940 0
M  V30 22 C 6.670053 1.127185 -2.439237 0
M  V30 23 C 5.341359 1.012244 -2.027423 0
M  V30 24 C -1.990136 -1.625154 1.458063 0
M  V30 25 C -2.770185 -1.405091 2.604074 0
M  V30 26 C -3.646001 -2.384219 3.022629 0
M  V30 27 N -3.801310 -3.562855 2.394538 0
M  V30 28 C -3.061918 -3.797576 1.302035 0
M  V30 29 C -3.236073 -5.021714 0.673382 0
M  V30 30 C -2.523761 -5.381160 -0.473737 0
M  V30 31 C -1.608381 -4.492974 -1.014445 0
M  V30 32 O -0.841168 -4.699743 -2.126702 0
M  V30 33 C -0.987377 -5.953810 -2.783102 0
M  V30 34 C -1.419807 -3.253052 -0.395211 0
M  V30 35 C -2.132088 -2.869921 0.772506 0
M  V30 36 H -3.970447 5.155773 -1.915203 0
M  V30 37 H -4.382058 3.889052 -3.206500 0
M  V30 38 H -3.401275 2.137009 -1.869154 0
M  V30 39 H -2.945528 4.444554 0.148509 0
M  V30 40 H -3.891387 3.145174 1.723545 0
M  V30 41 H -4.213771 1.875510 0.577149 0
M  V30 42 H -0.658459 2.002936 2.845919 0
M  V30 43 H -1.920759 3.162657 3.043873 0
M  V30 44 H -0.942459 4.538711 1.518509 0
M  V30 45 H 0.361464 3.366800 1.321390 0
M  V30 46 H -0.737494 3.789277 -0.882600 0
M  V30 47 H 0.165939 1.518312 -0.198611 0
M  V30 48 H -1.101197 1.394418 -1.408202 0
M  V30 49 H -2.596569 0.426801 -0.039347 0
M  V30 50 H -0.514747 -0.856520 0.104618 0
M  V30 51 H -0.343728 -0.077491 2.948804 0
M  V30 52 H 1.408186 -1.289222 0.248096 0
M  V30 53 H 3.452604 -1.093384 -0.510694 0
M  V30 54 H 3.940571 -0.634859 1.119521 0
M  V30 55 H 3.358155 1.800678 0.544713 0
M  V30 56 H 2.890056 1.288191 -1.054643 0
M  V30 57 H 5.765642 1.621009 1.298220 0
M  V30 58 H 8.113203 1.823449 0.558174 0
M  V30 59 H 8.701057 1.509124 -1.831399 0
M  V30 60 H 6.928087 0.988701 -3.485865 0
M  V30 61 H 4.575819 0.782392 -2.764821 0
M  V30 62 H -2.706275 -0.479747 3.167774 0
M  V30 63 H -4.265899 -2.241064 3.902963 0
M  V30 64 H -3.953789 -5.724210 1.092858 0
M  V30 65 H -2.713915 -6.356244 -0.908468 0
M  V30 66 H -2.005808 -6.082972 -3.164101 0
M  V30 67 H -0.703393 -6.780223 -2.123181 0
M  V30 68 H -0.307360 -5.963290 -3.640356 0
M  V30 69 H -0.694254 -2.591794 -0.856563 0
M  V30 END ATOM
M  V30 BEGIN BOND
M  V30 1 2 1 2
M  V30 2 1 2 3
M  V30 3 1 3 4
M  V30 4 1 4 5
M  V30 5 1 5 6
M  V30 6 1 6 7
M  V30 7 1 7 8
M  V30 8 1 8 9
M  V30 9 1 9 10
M  V30 10 1 10 11
M  V30 11 1 11 12
M  V30 12 1 12 13
M  V30 13 2 13 14
M  V30 14 1 13 15
M  V30 15 1 15 16
M  V30 16 1 16 17
M  V30 17 1 17 18
M  V30 18 2 18 19
M  V30 19 1 19 20
M  V30 20 2 20 21
M  V30 21 1 21 22
M  V30 22 2 22 23
M  V30 23 1 11 24
M  V30 24 2 24 25
M  V30 25 1 25 26
M  V30 26 2 26 27
M  V30 27 1 27 28
M  V30 28 2 28 29
M  V30 29 1 29 30
M  V30 30 2 30 31
M  V30 31 1 31 32
M  V30 32 1 32 33
M  V30 33 1 31 34
M  V30 34 2 34 35
M  V30 35 1 8 3
M  V30 36 1 23 18
M  V30 37 1 35 24
M  V30 38 1 10 5
M  V30 39 1 35 28
M  V30 40 1 1 36
M  V30 41 1 1 37
M  V30 42 1 2 38
M  V30 43 1 3 39 CFG=1
M  V30 44 1 4 40
M  V30 45 1 4 41
M  V30 46 1 6 42
M  V30 47 1 6 43
M  V30 48 1 7 44
M  V30 49 1 7 45
M  V30 50 1 8 46 CFG=3
M  V30 51 1 9 47
M  V30 52 1 9 48
M  V30 53 1 10 49 CFG=3
M  V30 54 1 11 50 CFG=3
M  V30 55 1 12 51
M  V30 56 1 15 52
M  V30 57 1 16 53
M  V30 58 1 16 54
M  V30 59 1 17 55
M  V30 60 1 17 56
M  V30 61 1 19 57
M  V30 62 1 20 58
M  V30 63 1 21 59
M  V30 64 1 22 60
M  V30 65 1 23 61
M  V30 66 1 25 62
M  V30 67 1 26 63
M  V30 68 1 29 64
M  V30 69 1 30 65
M  V30 70 1 33 66
M  V30 71 1 33 67
M  V30 72 1 33 68
M  V30 73 1 34 69
M  V30 END BOND
M  V30 END CTAB
M  END
>  <catalyst_id>  (1) 
LWPYQDTWMIWAJP_MPPVQRIUSA_NONE

>  <source_smiles>  (1) 
C=C[C@H]1CN2CC[C@H]1C[C@H]2[C@@H](NC(=S)NCCc1ccccc1)c1ccnc2ccc(OC)cc12

>  <axial_configuration>  (1) 
none

>  <inchikey>  (1) 
LWPYQDTWMIWAJP-MPPVQRIUSA-N

>  <build_source>  (1) 
smiles

>  <rdkit_version>  (1) 
2025.09.6

>  <random_seed>  (1) 
42

>  <generated_at>  (1) 
2026-05-19T12:37:08

$$$$
