catalyst336
     RDKit          3D

  0  0  0  0  0  0  0  0  0  0999 V3000
M  V30 BEGIN CTAB
M  V30 COUNTS 62 65 0 0 0
M  V30 BEGIN ATOM
M  V30 1 C -1.130648 -2.551908 1.455083 0
M  V30 2 N -1.017133 -1.741568 0.241855 0
M  V30 3 C -1.383313 -2.528698 -0.933218 0
M  V30 4 C -1.737110 -0.428668 0.364175 0 CFG=2
M  V30 5 C -3.258721 -0.528866 0.489648 0
M  V30 6 C -4.098568 -0.711653 -0.621039 0
M  V30 7 C -5.484820 -0.789184 -0.466061 0
M  V30 8 C -6.054261 -0.685500 0.800104 0
M  V30 9 C -5.238907 -0.504948 1.913507 0
M  V30 10 C -3.853338 -0.427557 1.760093 0
M  V30 11 C -1.257594 0.619463 -0.737291 0 CFG=2
M  V30 12 N 0.192831 0.436291 -0.976154 0
M  V30 13 C 0.858261 0.921107 -2.005416 0
M  V30 14 C 2.147579 0.888071 -2.483383 0
M  V30 15 N 3.339058 0.401353 -2.197400 0
M  V30 16 C 3.812846 -0.162456 -0.992433 0
M  V30 17 C 3.210485 0.072511 0.248219 0
M  V30 18 C 3.648972 -0.569991 1.417627 0
M  V30 19 C 2.948059 -0.324088 2.731816 0
M  V30 20 F 2.019465 -1.281016 3.007471 0
M  V30 21 F 3.803222 -0.316639 3.791852 0
M  V30 22 F 2.285247 0.864997 2.780161 0
M  V30 23 C 4.718242 -1.472932 1.334028 0
M  V30 24 C 5.352762 -1.720192 0.107852 0
M  V30 25 C 6.487840 -2.711013 0.012102 0
M  V30 26 F 7.210418 -2.805952 1.162277 0
M  V30 27 F 6.050920 -3.969913 -0.262672 0
M  V30 28 F 7.383250 -2.401310 -0.966090 0
M  V30 29 C 4.882075 -1.068044 -1.045184 0
M  V30 30 C 1.779254 1.688075 -3.675593 0
M  V30 31 O 2.312723 2.124420 -4.665298 0
M  V30 32 C 0.390783 1.727478 -3.164068 0
M  V30 33 O -0.633017 2.175931 -3.619140 0
M  V30 34 C -1.527342 2.054298 -0.296409 0
M  V30 35 C -2.540632 2.801110 -0.916248 0
M  V30 36 C -2.809540 4.109943 -0.511523 0
M  V30 37 C -2.071237 4.689553 0.517908 0
M  V30 38 C -1.060861 3.962908 1.142963 0
M  V30 39 C -0.790049 2.654631 0.739437 0
M  V30 40 H -2.150914 -2.909475 1.630187 0
M  V30 41 H -0.802187 -1.987097 2.334534 0
M  V30 42 H -0.473676 -3.426685 1.388818 0
M  V30 43 H -0.690500 -3.370533 -1.047432 0
M  V30 44 H -1.302696 -1.943293 -1.854372 0
M  V30 45 H -2.394951 -2.942309 -0.868380 0
M  V30 46 H -1.373470 -0.009729 1.314365 0
M  V30 47 H -3.688925 -0.801255 -1.623810 0
M  V30 48 H -6.121048 -0.930236 -1.336207 0
M  V30 49 H -7.132909 -0.743821 0.918883 0
M  V30 50 H -5.680809 -0.420492 2.902953 0
M  V30 51 H -3.237144 -0.280789 2.645090 0
M  V30 52 H -1.774840 0.416233 -1.682563 0
M  V30 53 H 0.515920 -0.416505 -0.504911 0
M  V30 54 H 4.084556 0.483133 -2.891280 0
M  V30 55 H 2.397801 0.791787 0.326955 0
M  V30 56 H 5.060361 -1.987768 2.233558 0
M  V30 57 H 5.352082 -1.288934 -2.003574 0
M  V30 58 H -3.124131 2.371760 -1.728183 0
M  V30 59 H -3.594339 4.677862 -1.004411 0
M  V30 60 H -2.281465 5.709053 0.829733 0
M  V30 61 H -0.481232 4.414887 1.943475 0
M  V30 62 H 0.007314 2.104162 1.234775 0
M  V30 END ATOM
M  V30 BEGIN BOND
M  V30 1 1 1 2
M  V30 2 1 2 3
M  V30 3 1 2 4
M  V30 4 1 4 5
M  V30 5 2 5 6
M  V30 6 1 6 7
M  V30 7 2 7 8
M  V30 8 1 8 9
M  V30 9 2 9 10
M  V30 10 1 4 11
M  V30 11 1 11 12
M  V30 12 1 12 13
M  V30 13 2 13 14
M  V30 14 1 14 15
M  V30 15 1 15 16
M  V30 16 2 16 17
M  V30 17 1 17 18
M  V30 18 1 18 19
M  V30 19 1 19 20
M  V30 20 1 19 21
M  V30 21 1 19 22
M  V30 22 2 18 23
M  V30 23 1 23 24
M  V30 24 1 24 25
M  V30 25 1 25 26
M  V30 26 1 25 27
M  V30 27 1 25 28
M  V30 28 2 24 29
M  V30 29 1 14 30
M  V30 30 2 30 31
M  V30 31 1 30 32
M  V30 32 2 32 33
M  V30 33 1 11 34
M  V30 34 2 34 35
M  V30 35 1 35 36
M  V30 36 2 36 37
M  V30 37 1 37 38
M  V30 38 2 38 39
M  V30 39 1 10 5
M  V30 40 1 32 13
M  V30 41 1 39 34
M  V30 42 1 29 16
M  V30 43 1 1 40
M  V30 44 1 1 41
M  V30 45 1 1 42
M  V30 46 1 3 43
M  V30 47 1 3 44
M  V30 48 1 3 45
M  V30 49 1 4 46 CFG=1
M  V30 50 1 6 47
M  V30 51 1 7 48
M  V30 52 1 8 49
M  V30 53 1 9 50
M  V30 54 1 10 51
M  V30 55 1 11 52 CFG=3
M  V30 56 1 12 53
M  V30 57 1 15 54
M  V30 58 1 17 55
M  V30 59 1 23 56
M  V30 60 1 29 57
M  V30 61 1 35 58
M  V30 62 1 36 59
M  V30 63 1 37 60
M  V30 64 1 38 61
M  V30 65 1 39 62
M  V30 END BOND
M  V30 END CTAB
M  END
>  <catalyst_id>  (1) 
SQPFGTYBBLELED_ZJSXRUAMSA_NONE

>  <source_smiles>  (1) 
CN(C)[C@H](c1ccccc1)[C@H](Nc1c(Nc2cc(C(F)(F)F)cc(C(F)(F)F)c2)c(=O)c1=O)c1ccccc1

>  <axial_configuration>  (1) 
none

>  <inchikey>  (1) 
SQPFGTYBBLELED-ZJSXRUAMSA-N

>  <build_source>  (1) 
smiles

>  <rdkit_version>  (1) 
2025.09.6

>  <random_seed>  (1) 
42

>  <generated_at>  (1) 
2026-05-19T12:40:08

$$$$
