catalyst202
     RDKit          3D

  0  0  0  0  0  0  0  0  0  0999 V3000
M  V30 BEGIN CTAB
M  V30 COUNTS 62 64 0 0 0
M  V30 BEGIN ATOM
M  V30 1 C -2.925447 2.324911 -0.702867 0
M  V30 2 Si -1.346258 2.099217 -1.685505 0 VAL=4
M  V30 3 C -0.819692 3.825139 -2.270613 0
M  V30 4 C -1.753616 1.105752 -3.231998 0
M  V30 5 O -0.066345 1.431867 -0.840363 0
M  V30 6 C -0.080578 0.380894 0.160310 0
M  V30 7 C -0.808865 -0.865275 -0.420664 0
M  V30 8 C -0.240539 -1.548342 -1.519996 0
M  V30 9 C -0.848129 -2.676699 -2.094354 0
M  V30 10 C -0.213938 -3.357957 -3.284600 0
M  V30 11 F -0.514602 -2.732025 -4.455096 0
M  V30 12 F 1.145090 -3.395210 -3.214626 0
M  V30 13 F -0.615104 -4.650616 -3.436804 0
M  V30 14 C -2.067565 -3.125067 -1.571352 0
M  V30 15 C -2.666792 -2.470762 -0.485490 0
M  V30 16 C -3.998666 -2.939591 0.055298 0
M  V30 17 F -5.044901 -2.298565 -0.532925 0
M  V30 18 F -4.130507 -2.721544 1.393671 0
M  V30 19 F -4.216318 -4.269898 -0.130625 0
M  V30 20 C -2.035401 -1.341853 0.070541 0
M  V30 21 C 1.427355 0.015719 0.411136 0
M  V30 22 C 2.477895 0.786513 -0.124819 0
M  V30 23 C 3.826534 0.463492 0.105598 0
M  V30 24 C 4.920841 1.312766 -0.497017 0
M  V30 25 F 5.144632 1.014993 -1.806189 0
M  V30 26 F 6.121193 1.166827 0.130768 0
M  V30 27 F 4.641728 2.645406 -0.456980 0
M  V30 28 C 4.132819 -0.668350 0.874347 0
M  V30 29 C 3.115420 -1.466658 1.415681 0
M  V30 30 C 3.448581 -2.666543 2.270250 0
M  V30 31 F 4.623886 -3.258797 1.916526 0
M  V30 32 F 3.573382 -2.347462 3.587464 0
M  V30 33 F 2.506807 -3.649008 2.207777 0
M  V30 34 C 1.776673 -1.111250 1.182809 0
M  V30 35 C -0.669684 0.963110 1.530946 0 CFG=2
M  V30 36 C -0.030482 2.299581 1.967676 0
M  V30 37 C 0.284667 2.134960 3.446072 0
M  V30 38 C -0.624570 1.012028 3.888119 0
M  V30 39 N -0.596609 0.107625 2.742482 0
M  V30 40 H -2.755770 2.953083 0.176026 0
M  V30 41 H -3.333979 1.365618 -0.375403 0
M  V30 42 H -3.686060 2.814811 -1.318983 0
M  V30 43 H -0.591957 4.461473 -1.410617 0
M  V30 44 H 0.072517 3.755129 -2.899386 0
M  V30 45 H -1.621025 4.292467 -2.850008 0
M  V30 46 H -2.415626 1.679051 -3.888011 0
M  V30 47 H -2.261432 0.171868 -2.977813 0
M  V30 48 H -0.842056 0.868112 -3.787952 0
M  V30 49 H 0.697346 -1.186615 -1.947349 0
M  V30 50 H -2.558780 -3.992143 -2.016584 0
M  V30 51 H -2.539595 -0.838693 0.892409 0
M  V30 52 H 2.254203 1.666295 -0.729178 0
M  V30 53 H 5.176249 -0.931443 1.055687 0
M  V30 54 H 0.990622 -1.729793 1.618248 0
M  V30 55 H -1.732305 1.179615 1.379923 0
M  V30 56 H 0.873095 2.573981 1.417509 0
M  V30 57 H -0.752608 3.114237 1.834359 0
M  V30 58 H 0.117695 3.057276 4.010125 0
M  V30 59 H 1.335673 1.845772 3.570656 0
M  V30 60 H -1.643047 1.376675 4.064974 0
M  V30 61 H -0.263504 0.522868 4.796880 0
M  V30 62 H -1.372552 -0.548974 2.789900 0
M  V30 END ATOM
M  V30 BEGIN BOND
M  V30 1 1 1 2
M  V30 2 1 2 3
M  V30 3 1 2 4
M  V30 4 1 2 5
M  V30 5 1 5 6
M  V30 6 1 6 7
M  V30 7 2 7 8
M  V30 8 1 8 9
M  V30 9 1 9 10
M  V30 10 1 10 11
M  V30 11 1 10 12
M  V30 12 1 10 13
M  V30 13 2 9 14
M  V30 14 1 14 15
M  V30 15 1 15 16
M  V30 16 1 16 17
M  V30 17 1 16 18
M  V30 18 1 16 19
M  V30 19 2 15 20
M  V30 20 1 6 21
M  V30 21 2 21 22
M  V30 22 1 22 23
M  V30 23 1 23 24
M  V30 24 1 24 25
M  V30 25 1 24 26
M  V30 26 1 24 27
M  V30 27 2 23 28
M  V30 28 1 28 29
M  V30 29 1 29 30
M  V30 30 1 30 31
M  V30 31 1 30 32
M  V30 32 1 30 33
M  V30 33 2 29 34
M  V30 34 1 6 35
M  V30 35 1 35 36
M  V30 36 1 36 37
M  V30 37 1 37 38
M  V30 38 1 38 39
M  V30 39 1 20 7
M  V30 40 1 34 21
M  V30 41 1 39 35
M  V30 42 1 1 40
M  V30 43 1 1 41
M  V30 44 1 1 42
M  V30 45 1 3 43
M  V30 46 1 3 44
M  V30 47 1 3 45
M  V30 48 1 4 46
M  V30 49 1 4 47
M  V30 50 1 4 48
M  V30 51 1 8 49
M  V30 52 1 14 50
M  V30 53 1 20 51
M  V30 54 1 22 52
M  V30 55 1 28 53
M  V30 56 1 34 54
M  V30 57 1 35 55 CFG=3
M  V30 58 1 36 56
M  V30 59 1 36 57
M  V30 60 1 37 58
M  V30 61 1 37 59
M  V30 62 1 38 60
M  V30 63 1 38 61
M  V30 64 1 39 62
M  V30 END BOND
M  V30 END CTAB
M  END
>  <catalyst_id>  (1) 
MOHRGTBNEJKFMB_IBGZPJMESA_NONE

>  <source_smiles>  (1) 
C[Si](C)(C)OC(c1cc(C(F)(F)F)cc(C(F)(F)F)c1)(c1cc(C(F)(F)F)cc(C(F)(F)F)c1)[C@@H]1CCCN1

>  <axial_configuration>  (1) 
none

>  <inchikey>  (1) 
MOHRGTBNEJKFMB-IBGZPJMESA-N

>  <build_source>  (1) 
smiles

>  <rdkit_version>  (1) 
2025.09.6

>  <random_seed>  (1) 
42

>  <generated_at>  (1) 
2026-05-19T12:31:51

$$$$
