catalyst247
     RDKit          3D

  0  0  0  0  0  0  0  0  0  0999 V3000
M  V30 BEGIN CTAB
M  V30 COUNTS 24 25 0 0 0
M  V30 BEGIN ATOM
M  V30 1 O 1.249446 -2.349363 -0.245587 0
M  V30 2 C 1.860281 -1.292867 -0.315973 0
M  V30 3 O 2.874975 -1.151667 -1.192316 0
M  V30 4 C 1.623826 -0.046516 0.540389 0 CFG=1
M  V30 5 C 1.230023 1.161173 -0.297664 0
M  V30 6 C -0.280552 1.240338 -0.180523 0 CFG=1
M  V30 7 C -1.055704 0.369649 -1.183045 0
M  V30 8 C -1.892036 -0.606455 -0.357736 0
M  V30 9 C -1.934695 -0.000653 1.037742 0
M  V30 10 C -0.571914 0.662743 1.199001 0 CFG=1
M  V30 11 N 0.514167 -0.278522 1.501555 0
M  V30 12 H 2.922341 -2.022655 -1.639786 0
M  V30 13 H 2.546793 0.137344 1.101169 0
M  V30 14 H 1.561673 1.115529 -1.339559 0
M  V30 15 H 1.665350 2.062803 0.152089 0
M  V30 16 H -0.618091 2.280117 -0.264659 0
M  V30 17 H -1.719217 1.010189 -1.776546 0
M  V30 18 H -0.410590 -0.159454 -1.891767 0
M  V30 19 H -2.893433 -0.745780 -0.776318 0
M  V30 20 H -1.407460 -1.588593 -0.332621 0
M  V30 21 H -2.723852 0.759801 1.086032 0
M  V30 22 H -2.144796 -0.748937 1.808440 0
M  V30 23 H -0.592319 1.439183 1.970944 0
M  V30 24 H 0.195783 -1.247409 1.396738 0
M  V30 END ATOM
M  V30 BEGIN BOND
M  V30 1 2 1 2
M  V30 2 1 2 3
M  V30 3 1 2 4
M  V30 4 1 4 5
M  V30 5 1 5 6
M  V30 6 1 6 7
M  V30 7 1 7 8
M  V30 8 1 8 9
M  V30 9 1 9 10
M  V30 10 1 10 11
M  V30 11 1 11 4
M  V30 12 1 10 6
M  V30 13 1 3 12
M  V30 14 1 4 13 CFG=1
M  V30 15 1 5 14
M  V30 16 1 5 15
M  V30 17 1 6 16 CFG=1
M  V30 18 1 7 17
M  V30 19 1 7 18
M  V30 20 1 8 19
M  V30 21 1 8 20
M  V30 22 1 9 21
M  V30 23 1 9 22
M  V30 24 1 10 23 CFG=1
M  V30 25 1 11 24
M  V30 END BOND
M  V30 END CTAB
M  END
>  <catalyst_id>  (1) 
OQHKEWIEKYQINX_FSDSQADBSA_NONE

>  <source_smiles>  (1) 
O=C(O)[C@H]1C[C@H]2CCC[C@H]2N1

>  <axial_configuration>  (1) 
none

>  <inchikey>  (1) 
OQHKEWIEKYQINX-FSDSQADBSA-N

>  <build_source>  (1) 
smiles

>  <rdkit_version>  (1) 
2025.09.6

>  <random_seed>  (1) 
42

>  <generated_at>  (1) 
2026-05-19T12:31:43

$$$$
