catalyst419
     RDKit          3D

  0  0  0  0  0  0  0  0  0  0999 V3000
M  V30 BEGIN CTAB
M  V30 COUNTS 112 121 0 0 0
M  V30 BEGIN ATOM
M  V30 1 C -4.817815 0.037786 4.066786 0
M  V30 2 C -4.244909 -1.308122 3.641557 0
M  V30 3 C -5.275299 -2.185786 2.910267 0 CFG=1
M  V30 4 C -5.685942 -1.601929 1.537737 0
M  V30 5 N -5.644501 -2.626049 0.468770 0
M  V30 6 C -6.496360 -3.766154 0.874871 0
M  V30 7 C -5.961114 -4.449264 2.142224 0
M  V30 8 C -4.777311 -3.636967 2.696064 0 CFG=1
M  V30 9 C -3.674937 -3.651118 1.623701 0
M  V30 10 C -4.244032 -3.116093 0.280297 0 CFG=2
M  V30 11 C -3.253879 -2.083446 -0.370043 0 CFG=1
M  V30 12 O -2.043857 -2.802838 -0.701684 0
M  V30 13 C -0.926187 -2.003771 -0.584632 0
M  V30 14 N -0.732135 -1.377240 0.598204 0
M  V30 15 N 0.333847 -0.553329 0.744716 0
M  V30 16 C 1.201727 -0.389832 -0.280282 0
M  V30 17 O 2.249508 0.503892 -0.152133 0
M  V30 18 C 2.402509 1.114798 1.133994 0 CFG=1
M  V30 19 C 3.183716 0.233364 2.117621 0
M  V30 20 C 2.727099 0.243786 3.446962 0
M  V30 21 C 3.395295 -0.499236 4.396434 0
M  V30 22 N 4.482510 -1.242077 4.128093 0
M  V30 23 C 4.931317 -1.272270 2.865341 0
M  V30 24 C 6.050199 -2.052939 2.614339 0
M  V30 25 C 6.611224 -2.167461 1.339919 0
M  V30 26 C 6.038290 -1.484857 0.279765 0
M  V30 27 O 6.467195 -1.499420 -1.017922 0
M  V30 28 C 7.588173 -2.323504 -1.314158 0
M  V30 29 C 4.911276 -0.691872 0.516420 0
M  V30 30 C 4.328010 -0.556988 1.802034 0
M  V30 31 C 3.046933 2.546541 1.013840 0 CFG=1
M  V30 32 C 4.167780 2.690011 -0.045388 0
M  V30 33 C 4.055807 4.061777 -0.738143 0 CFG=2
M  V30 34 C 3.951311 5.132154 0.364346 0
M  V30 35 C 2.641521 4.930268 1.141914 0
M  V30 36 N 2.015669 3.627215 0.813171 0
M  V30 37 C 1.586886 3.664313 -0.606586 0
M  V30 38 C 2.735027 4.109822 -1.545290 0 CFG=2
M  V30 39 C 2.723546 3.281917 -2.841614 0
M  V30 40 C 3.775464 3.717094 -3.850507 0
M  V30 41 C 1.069589 -1.058555 -1.506552 0
M  V30 42 C 1.978216 -0.920422 -2.581358 0
M  V30 43 C 1.785955 -1.602534 -3.783340 0
M  V30 44 C 0.683924 -2.434718 -3.937980 0
M  V30 45 C -0.222944 -2.587074 -2.889283 0
M  V30 46 C -0.041735 -1.906787 -1.663711 0
M  V30 47 C -3.755037 -1.414801 -1.653055 0
M  V30 48 C -4.363558 -2.206220 -2.638118 0
M  V30 49 C -4.778718 -1.615502 -3.813017 0
M  V30 50 N -4.617874 -0.310009 -4.090330 0
M  V30 51 C -4.024182 0.462148 -3.169203 0
M  V30 52 C -3.855527 1.801614 -3.482124 0
M  V30 53 C -3.240246 2.693296 -2.603301 0
M  V30 54 C -2.778291 2.250404 -1.372555 0
M  V30 55 O -2.192821 3.212354 -0.598489 0
M  V30 56 C -1.721787 2.815635 0.684926 0
M  V30 57 C -2.942160 0.905337 -1.036898 0
M  V30 58 C -3.564190 -0.023113 -1.920284 0
M  V30 59 H -5.122133 0.637212 3.203747 0
M  V30 60 H -4.065151 0.607861 4.620796 0
M  V30 61 H -5.687675 -0.094989 4.717864 0
M  V30 62 H -3.894282 -1.832693 4.538492 0
M  V30 63 H -3.365959 -1.131207 3.011850 0
M  V30 64 H -6.172564 -2.237486 3.543638 0
M  V30 65 H -5.065615 -0.744661 1.255007 0
M  V30 66 H -6.704884 -1.198996 1.607425 0
M  V30 67 H -7.524846 -3.420388 1.038777 0
M  V30 68 H -6.560404 -4.493773 0.056320 0
M  V30 69 H -5.639704 -5.472107 1.911764 0
M  V30 70 H -6.757307 -4.520800 2.892518 0
M  V30 71 H -4.416352 -4.077322 3.631600 0
M  V30 72 H -2.814250 -3.067311 1.965646 0
M  V30 73 H -3.316539 -4.678521 1.480553 0
M  V30 74 H -4.284897 -3.979257 -0.399592 0
M  V30 75 H -3.077874 -1.331843 0.403229 0
M  V30 76 H 1.410056 1.295760 1.570733 0
M  V30 77 H 1.856921 0.823248 3.742242 0
M  V30 78 H 3.065163 -0.515139 5.431003 0
M  V30 79 H 6.502692 -2.595103 3.442371 0
M  V30 80 H 7.486041 -2.796817 1.220735 0
M  V30 81 H 7.373264 -3.375474 -1.098916 0
M  V30 82 H 8.479909 -1.983556 -0.777275 0
M  V30 83 H 7.791877 -2.237742 -2.385861 0
M  V30 84 H 4.487942 -0.186095 -0.342731 0
M  V30 85 H 3.492753 2.754820 1.998044 0
M  V30 86 H 4.131744 1.908661 -0.806316 0
M  V30 87 H 5.142875 2.606182 0.450150 0
M  V30 88 H 4.931589 4.255456 -1.363746 0
M  V30 89 H 4.810206 5.055661 1.042074 0
M  V30 90 H 3.971957 6.136420 -0.074724 0
M  V30 91 H 2.833840 4.991988 2.220090 0
M  V30 92 H 1.939442 5.744886 0.922879 0
M  V30 93 H 0.750473 4.368170 -0.707670 0
M  V30 94 H 1.173325 2.694033 -0.900408 0
M  V30 95 H 2.554760 5.156586 -1.830181 0
M  V30 96 H 2.855592 2.216892 -2.626569 0
M  V30 97 H 1.736616 3.381069 -3.311293 0
M  V30 98 H 3.700291 4.788377 -4.061441 0
M  V30 99 H 3.637102 3.176217 -4.792335 0
M  V30 100 H 4.786771 3.501947 -3.494057 0
M  V30 101 H 2.849849 -0.276243 -2.482595 0
M  V30 102 H 2.496531 -1.480718 -4.597044 0
M  V30 103 H 0.526235 -2.963670 -4.874534 0
M  V30 104 H -1.083248 -3.238613 -3.031649 0
M  V30 105 H -4.518309 -3.270681 -2.502925 0
M  V30 106 H -5.263459 -2.197774 -4.591177 0
M  V30 107 H -4.211785 2.164985 -4.443343 0
M  V30 108 H -3.124903 3.736229 -2.886078 0
M  V30 109 H -2.543230 2.453411 1.311928 0
M  V30 110 H -1.295455 3.697783 1.171924 0
M  V30 111 H -0.929978 2.066153 0.598910 0
M  V30 112 H -2.577182 0.565743 -0.076180 0
M  V30 END ATOM
M  V30 BEGIN BOND
M  V30 1 1 1 2
M  V30 2 1 2 3
M  V30 3 1 3 4
M  V30 4 1 4 5
M  V30 5 1 5 6
M  V30 6 1 6 7
M  V30 7 1 7 8
M  V30 8 1 8 9
M  V30 9 1 9 10
M  V30 10 1 10 11
M  V30 11 1 11 12
M  V30 12 1 12 13
M  V30 13 2 13 14
M  V30 14 1 14 15
M  V30 15 2 15 16
M  V30 16 1 16 17
M  V30 17 1 17 18
M  V30 18 1 18 19
M  V30 19 2 19 20
M  V30 20 1 20 21
M  V30 21 2 21 22
M  V30 22 1 22 23
M  V30 23 2 23 24
M  V30 24 1 24 25
M  V30 25 2 25 26
M  V30 26 1 26 27
M  V30 27 1 27 28
M  V30 28 1 26 29
M  V30 29 2 29 30
M  V30 30 1 18 31
M  V30 31 1 31 32
M  V30 32 1 32 33
M  V30 33 1 33 34
M  V30 34 1 34 35
M  V30 35 1 35 36
M  V30 36 1 36 37
M  V30 37 1 37 38
M  V30 38 1 38 39
M  V30 39 1 39 40
M  V30 40 1 16 41
M  V30 41 2 41 42
M  V30 42 1 42 43
M  V30 43 2 43 44
M  V30 44 1 44 45
M  V30 45 2 45 46
M  V30 46 1 11 47
M  V30 47 2 47 48
M  V30 48 1 48 49
M  V30 49 2 49 50
M  V30 50 1 50 51
M  V30 51 2 51 52
M  V30 52 1 52 53
M  V30 53 2 53 54
M  V30 54 1 54 55
M  V30 55 1 55 56
M  V30 56 1 54 57
M  V30 57 2 57 58
M  V30 58 1 8 3
M  V30 59 1 46 13
M  V30 60 1 58 47
M  V30 61 1 10 5
M  V30 62 1 30 19
M  V30 63 1 36 31
M  V30 64 1 46 41
M  V30 65 1 58 51
M  V30 66 1 30 23
M  V30 67 1 38 33
M  V30 68 1 1 59
M  V30 69 1 1 60
M  V30 70 1 1 61
M  V30 71 1 2 62
M  V30 72 1 2 63
M  V30 73 1 3 64 CFG=1
M  V30 74 1 4 65
M  V30 75 1 4 66
M  V30 76 1 6 67
M  V30 77 1 6 68
M  V30 78 1 7 69
M  V30 79 1 7 70
M  V30 80 1 8 71 CFG=1
M  V30 81 1 9 72
M  V30 82 1 9 73
M  V30 83 1 10 74 CFG=3
M  V30 84 1 11 75 CFG=1
M  V30 85 1 18 76 CFG=1
M  V30 86 1 20 77
M  V30 87 1 21 78
M  V30 88 1 24 79
M  V30 89 1 25 80
M  V30 90 1 28 81
M  V30 91 1 28 82
M  V30 92 1 28 83
M  V30 93 1 29 84
M  V30 94 1 31 85 CFG=1
M  V30 95 1 32 86
M  V30 96 1 32 87
M  V30 97 1 33 88 CFG=3
M  V30 98 1 34 89
M  V30 99 1 34 90
M  V30 100 1 35 91
M  V30 101 1 35 92
M  V30 102 1 37 93
M  V30 103 1 37 94
M  V30 104 1 38 95 CFG=3
M  V30 105 1 39 96
M  V30 106 1 39 97
M  V30 107 1 40 98
M  V30 108 1 40 99
M  V30 109 1 40 100
M  V30 110 1 42 101
M  V30 111 1 43 102
M  V30 112 1 44 103
M  V30 113 1 45 104
M  V30 114 1 48 105
M  V30 115 1 49 106
M  V30 116 1 52 107
M  V30 117 1 53 108
M  V30 118 1 56 109
M  V30 119 1 56 110
M  V30 120 1 56 111
M  V30 121 1 57 112
M  V30 END BOND
M  V30 END CTAB
M  END
>  <catalyst_id>  (1) 
YUCBLVFHJWOYDN_HVLQGHBFSA_NONE

>  <source_smiles>  (1) 
CC[C@H]1CN2CC[C@H]1C[C@@H]2[C@@H](Oc1nnc(O[C@@H](c2ccnc3ccc(OC)cc23)[C@H]2C[C@@H]3CCN2C[C@@H]3CC)c2ccccc12)c1ccnc2ccc(OC)cc12

>  <axial_configuration>  (1) 
none

>  <inchikey>  (1) 
YUCBLVFHJWOYDN-HVLQGHBFSA-N

>  <build_source>  (1) 
smiles

>  <rdkit_version>  (1) 
2025.09.6

>  <random_seed>  (1) 
42

>  <generated_at>  (1) 
2026-05-19T12:29:47

$$$$
