catalyst128
     RDKit          3D

  0  0  0  0  0  0  0  0  0  0999 V3000
M  V30 BEGIN CTAB
M  V30 COUNTS 38 42 0 0 0
M  V30 BEGIN ATOM
M  V30 1 O 4.327637 -2.171778 0.390130 0
M  V30 2 P 3.580338 -0.956307 -0.063943 0
M  V30 3 O 4.595007 0.095549 -0.738228 0
M  V30 4 O 2.492997 -1.209432 -1.223567 0
M  V30 5 C 1.263513 -1.677473 -0.835301 0
M  V30 6 C 0.952998 -2.971049 -1.246504 0
M  V30 7 C -0.275683 -3.518123 -0.913463 0
M  V30 8 C -1.186783 -2.793169 -0.142079 0
M  V30 9 C -2.401512 -3.395133 0.227149 0
M  V30 10 C -3.315531 -2.730997 1.040144 0
M  V30 11 C -3.017364 -1.460678 1.506172 0
M  V30 12 C -1.815484 -0.848864 1.138881 0
M  V30 13 C -0.874393 -1.469195 0.278316 0
M  V30 14 C 0.367820 -0.849449 -0.124847 0
M  V30 15 C 0.716105 0.533640 0.138257 0
M  V30 16 C 1.943657 0.855359 0.762212 0
M  V30 17 C 2.280824 2.146515 1.163542 0
M  V30 18 C 1.413697 3.195999 0.906476 0
M  V30 19 C 0.219425 2.972523 0.219402 0
M  V30 20 C -0.612824 4.065554 -0.075939 0
M  V30 21 C -1.785721 3.899960 -0.806614 0
M  V30 22 C -2.131748 2.638947 -1.264082 0
M  V30 23 C -1.315282 1.543262 -0.969074 0
M  V30 24 C -0.134580 1.655896 -0.190799 0
M  V30 25 O 2.858035 -0.111763 1.099456 0
M  V30 26 H 5.398261 -0.370951 -1.032780 0
M  V30 27 H 1.668265 -3.550571 -1.824074 0
M  V30 28 H -0.504171 -4.530640 -1.239578 0
M  V30 29 H -2.641636 -4.402683 -0.107307 0
M  V30 30 H -4.247370 -3.213298 1.322305 0
M  V30 31 H -3.711265 -0.940658 2.161536 0
M  V30 32 H -1.615131 0.136603 1.555994 0
M  V30 33 H 3.220544 2.331217 1.677423 0
M  V30 34 H 1.694248 4.197434 1.225631 0
M  V30 35 H -0.343737 5.067810 0.252306 0
M  V30 36 H -2.414877 4.756541 -1.032218 0
M  V30 37 H -3.032092 2.499022 -1.856687 0
M  V30 38 H -1.616187 0.580379 -1.378247 0
M  V30 END ATOM
M  V30 BEGIN BOND
M  V30 1 2 1 2
M  V30 2 1 2 3
M  V30 3 1 2 4
M  V30 4 1 4 5
M  V30 5 2 5 6
M  V30 6 1 6 7
M  V30 7 2 7 8
M  V30 8 1 8 9
M  V30 9 2 9 10
M  V30 10 1 10 11
M  V30 11 2 11 12
M  V30 12 1 12 13
M  V30 13 2 13 14
M  V30 14 1 14 15
M  V30 15 2 15 16
M  V30 16 1 16 17
M  V30 17 2 17 18
M  V30 18 1 18 19
M  V30 19 2 19 20
M  V30 20 1 20 21
M  V30 21 2 21 22
M  V30 22 1 22 23
M  V30 23 2 23 24
M  V30 24 1 16 25
M  V30 25 1 25 2
M  V30 26 1 14 5
M  V30 27 1 24 15
M  V30 28 1 13 8
M  V30 29 1 24 19
M  V30 30 1 3 26
M  V30 31 1 6 27
M  V30 32 1 7 28
M  V30 33 1 9 29
M  V30 34 1 10 30
M  V30 35 1 11 31
M  V30 36 1 12 32
M  V30 37 1 17 33
M  V30 38 1 18 34
M  V30 39 1 20 35
M  V30 40 1 21 36
M  V30 41 1 22 37
M  V30 42 1 23 38
M  V30 END BOND
M  V30 END CTAB
M  END
>  <catalyst_id>  (1) 
JEHUZVBIUCAMRZ_UHFFFAOYSA_R

>  <source_smiles>  (1) 
O=P1(O)Oc2ccc3ccccc3c2-c2c(ccc3ccccc23)O1

>  <axial_configuration>  (1) 
R

>  <inchikey>  (1) 
JEHUZVBIUCAMRZ-UHFFFAOYSA-N

>  <build_source>  (1) 
smiles+axial_bridged

>  <final_biaryl_angle_deg>  (1) 
127.65

>  <n_valid_conformers>  (1) 
12

>  <rdkit_version>  (1) 
2025.09.6

>  <random_seed>  (1) 
42

>  <generated_at>  (1) 
2026-05-19T12:37:09

$$$$
