catalyst381
     RDKit          3D

  0  0  0  0  0  0  0  0  0  0999 V3000
M  V30 BEGIN CTAB
M  V30 COUNTS 84 92 0 0 0
M  V30 BEGIN ATOM
M  V30 1 O 0.768326 -3.254299 -0.486736 0
M  V30 2 P 0.437947 -1.939361 0.139697 0
M  V30 3 O 0.080404 -2.015647 1.705130 0
M  V30 4 O 1.578610 -0.787903 0.097517 0
M  V30 5 C 1.763382 -0.079383 -1.059916 0
M  V30 6 C 3.001763 -0.186242 -1.699618 0
M  V30 7 P 4.470104 -1.009584 -1.045062 0
M  V30 8 O 5.326280 -1.524727 -2.195863 0
M  V30 9 C 5.387971 0.249030 -0.114937 0
M  V30 10 C 4.749130 1.282276 0.587278 0
M  V30 11 C 5.496359 2.226438 1.294082 0
M  V30 12 C 6.887686 2.149598 1.307037 0
M  V30 13 C 7.535125 1.129219 0.614116 0
M  V30 14 C 6.789962 0.184879 -0.092285 0
M  V30 15 C 4.087580 -2.345717 0.091856 0
M  V30 16 C 3.976849 -3.650589 -0.412950 0
M  V30 17 C 3.703524 -4.725583 0.434047 0
M  V30 18 C 3.540205 -4.511813 1.799976 0
M  V30 19 C 3.656896 -3.225380 2.319751 0
M  V30 20 C 3.935049 -2.150283 1.473014 0
M  V30 21 C 3.169690 0.494418 -2.912871 0
M  V30 22 C 2.153069 1.268383 -3.473238 0
M  V30 23 C 2.359844 1.880573 -4.721039 0
M  V30 24 C 1.362312 2.643245 -5.321316 0
M  V30 25 C 0.142049 2.794382 -4.682664 0
M  V30 26 C -0.069415 2.194902 -3.438042 0
M  V30 27 C 0.931272 1.435954 -2.777409 0
M  V30 28 C 0.743580 0.814186 -1.492520 0
M  V30 29 C -0.386758 1.103934 -0.633606 0
M  V30 30 C -1.186824 0.050959 -0.143841 0
M  V30 31 C -2.360085 0.230431 0.602440 0
M  V30 32 P -3.330939 -1.207066 1.100268 0
M  V30 33 O -2.426241 -2.303151 1.660248 0
M  V30 34 C -4.525109 -0.683241 2.346100 0
M  V30 35 C -4.114577 -0.623595 3.688100 0
M  V30 36 C -4.995513 -0.205465 4.685517 0
M  V30 37 C -6.298961 0.156415 4.354634 0
M  V30 38 C -6.722426 0.097745 3.028463 0
M  V30 39 C -5.841796 -0.320028 2.028490 0
M  V30 40 C -4.240662 -1.786701 -0.342335 0
M  V30 41 C -4.602147 -3.140631 -0.417542 0
M  V30 42 C -5.312373 -3.627919 -1.514733 0
M  V30 43 C -5.669393 -2.767690 -2.550409 0
M  V30 44 C -5.315736 -1.421279 -2.490868 0
M  V30 45 C -4.605049 -0.931711 -1.393523 0
M  V30 46 C -2.738333 1.532847 0.922941 0
M  V30 47 C -1.960343 2.627736 0.534490 0
M  V30 48 C -2.357405 3.918585 0.922501 0
M  V30 49 C -1.590587 5.034784 0.601121 0
M  V30 50 C -0.408017 4.870774 -0.101356 0
M  V30 51 C -0.006100 3.592383 -0.497628 0
M  V30 52 C -0.775530 2.432114 -0.226651 0
M  V30 53 O -0.873567 -1.235903 -0.487695 0
M  V30 54 H -0.789245 -2.473188 1.826067 0
M  V30 55 H 3.665314 1.359447 0.599694 0
M  V30 56 H 4.992276 3.022454 1.836548 0
M  V30 57 H 7.468354 2.885308 1.857461 0
M  V30 58 H 8.620383 1.067728 0.621772 0
M  V30 59 H 7.302053 -0.608839 -0.634827 0
M  V30 60 H 4.098520 -3.830025 -1.480027 0
M  V30 61 H 3.604464 -5.726478 0.022628 0
M  V30 62 H 3.315795 -5.347366 2.457121 0
M  V30 63 H 3.525859 -3.057286 3.385531 0
M  V30 64 H 4.019782 -1.158295 1.907454 0
M  V30 65 H 4.127237 0.404463 -3.429145 0
M  V30 66 H 3.306190 1.756719 -5.245266 0
M  V30 67 H 1.535955 3.104022 -6.289957 0
M  V30 68 H -0.651814 3.371561 -5.149439 0
M  V30 69 H -1.053190 2.320119 -2.989480 0
M  V30 70 H -3.099074 -0.911202 3.957525 0
M  V30 71 H -4.665880 -0.167564 5.720976 0
M  V30 72 H -6.987683 0.477671 5.132122 0
M  V30 73 H -7.743206 0.372830 2.773368 0
M  V30 74 H -6.201596 -0.360763 1.003606 0
M  V30 75 H -4.319783 -3.822575 0.383331 0
M  V30 76 H -5.580599 -4.680438 -1.564068 0
M  V30 77 H -6.217635 -3.149170 -3.408209 0
M  V30 78 H -5.589307 -0.753665 -3.304382 0
M  V30 79 H -4.339015 0.121981 -1.372890 0
M  V30 80 H -3.642299 1.705294 1.503825 0
M  V30 81 H -3.270021 4.067746 1.497263 0
M  V30 82 H -1.908618 6.025712 0.914089 0
M  V30 83 H 0.211183 5.731783 -0.340470 0
M  V30 84 H 0.944520 3.516716 -1.022853 0
M  V30 END ATOM
M  V30 BEGIN BOND
M  V30 1 2 1 2
M  V30 2 1 2 3
M  V30 3 1 2 4
M  V30 4 1 4 5
M  V30 5 2 5 6
M  V30 6 1 6 7
M  V30 7 2 7 8
M  V30 8 1 7 9
M  V30 9 2 9 10
M  V30 10 1 10 11
M  V30 11 2 11 12
M  V30 12 1 12 13
M  V30 13 2 13 14
M  V30 14 1 7 15
M  V30 15 2 15 16
M  V30 16 1 16 17
M  V30 17 2 17 18
M  V30 18 1 18 19
M  V30 19 2 19 20
M  V30 20 1 6 21
M  V30 21 2 21 22
M  V30 22 1 22 23
M  V30 23 2 23 24
M  V30 24 1 24 25
M  V30 25 2 25 26
M  V30 26 1 26 27
M  V30 27 2 27 28
M  V30 28 1 28 29
M  V30 29 2 29 30
M  V30 30 1 30 31
M  V30 31 1 31 32
M  V30 32 2 32 33
M  V30 33 1 32 34
M  V30 34 2 34 35
M  V30 35 1 35 36
M  V30 36 2 36 37
M  V30 37 1 37 38
M  V30 38 2 38 39
M  V30 39 1 32 40
M  V30 40 2 40 41
M  V30 41 1 41 42
M  V30 42 2 42 43
M  V30 43 1 43 44
M  V30 44 2 44 45
M  V30 45 2 31 46
M  V30 46 1 46 47
M  V30 47 2 47 48
M  V30 48 1 48 49
M  V30 49 2 49 50
M  V30 50 1 50 51
M  V30 51 2 51 52
M  V30 52 1 30 53
M  V30 53 1 53 2
M  V30 54 1 28 5
M  V30 55 1 52 29
M  V30 56 1 14 9
M  V30 57 1 20 15
M  V30 58 1 27 22
M  V30 59 1 39 34
M  V30 60 1 45 40
M  V30 61 1 52 47
M  V30 62 1 3 54
M  V30 63 1 10 55
M  V30 64 1 11 56
M  V30 65 1 12 57
M  V30 66 1 13 58
M  V30 67 1 14 59
M  V30 68 1 16 60
M  V30 69 1 17 61
M  V30 70 1 18 62
M  V30 71 1 19 63
M  V30 72 1 20 64
M  V30 73 1 21 65
M  V30 74 1 23 66
M  V30 75 1 24 67
M  V30 76 1 25 68
M  V30 77 1 26 69
M  V30 78 1 35 70
M  V30 79 1 36 71
M  V30 80 1 37 72
M  V30 81 1 38 73
M  V30 82 1 39 74
M  V30 83 1 41 75
M  V30 84 1 42 76
M  V30 85 1 43 77
M  V30 86 1 44 78
M  V30 87 1 45 79
M  V30 88 1 46 80
M  V30 89 1 48 81
M  V30 90 1 49 82
M  V30 91 1 50 83
M  V30 92 1 51 84
M  V30 END BOND
M  V30 END CTAB
M  END
>  <catalyst_id>  (1) 
WKRAMFDPPRNWOU_UHFFFAOYSA_R

>  <source_smiles>  (1) 
O=P1(O)Oc2c(P(=O)(c3ccccc3)c3ccccc3)cc3ccccc3c2-c2c(c(P(=O)(c3ccccc3)c3ccccc3)cc3ccccc23)O1

>  <axial_configuration>  (1) 
R

>  <inchikey>  (1) 
WKRAMFDPPRNWOU-UHFFFAOYSA-N

>  <build_source>  (1) 
smiles+axial_bridged

>  <final_biaryl_angle_deg>  (1) 
126.72

>  <n_valid_conformers>  (1) 
10

>  <rdkit_version>  (1) 
2025.09.6

>  <random_seed>  (1) 
42

>  <generated_at>  (1) 
2026-05-19T12:33:49

$$$$
