catalyst410
     RDKit          3D

  0  0  0  0  0  0  0  0  0  0999 V3000
M  V30 BEGIN CTAB
M  V30 COUNTS 32 33 0 0 0
M  V30 BEGIN ATOM
M  V30 1 C 3.713894 1.520309 -0.543284 0
M  V30 2 N 2.545812 0.652368 -0.562511 0
M  V30 3 C 1.353156 1.344122 -1.051326 0
M  V30 4 C 0.248727 0.442427 -0.519402 0 CFG=2
M  V30 5 C -1.128406 1.113300 -0.582580 0
M  V30 6 C -2.256648 0.173203 -0.227602 0
M  V30 7 C -2.848840 -0.631447 -1.210426 0
M  V30 8 C -3.880332 -1.510682 -0.876741 0
M  V30 9 C -4.326109 -1.596723 0.440923 0
M  V30 10 C -3.739938 -0.805225 1.426717 0
M  V30 11 C -2.708979 0.074743 1.094895 0
M  V30 12 N 0.711927 0.189721 0.855760 0
M  V30 13 C 2.189339 0.156065 0.775590 0 CFG=1
M  V30 14 C 2.704798 -1.292395 0.968678 0
M  V30 15 O 2.016835 -2.289330 1.150472 0
M  V30 16 O 4.052765 -1.401042 0.959588 0
M  V30 17 H 3.940884 1.872980 -1.555447 0
M  V30 18 H 4.598143 0.978043 -0.193118 0
M  V30 19 H 3.573358 2.396967 0.099522 0
M  V30 20 H 1.267960 2.360439 -0.643103 0
M  V30 21 H 1.343030 1.397816 -2.144742 0
M  V30 22 H 0.237977 -0.503308 -1.080405 0
M  V30 23 H -1.301982 1.500873 -1.595332 0
M  V30 24 H -1.163135 1.992603 0.074686 0
M  V30 25 H -2.509577 -0.579717 -2.242251 0
M  V30 26 H -4.334563 -2.130908 -1.644848 0
M  V30 27 H -5.127586 -2.283064 0.700333 0
M  V30 28 H -4.082458 -0.875184 2.455621 0
M  V30 29 H -2.252437 0.680451 1.875055 0
M  V30 30 H 0.380639 -0.735942 1.144081 0
M  V30 31 H 2.578446 0.772561 1.594534 0
M  V30 32 H 4.203300 -2.363636 1.056662 0
M  V30 END ATOM
M  V30 BEGIN BOND
M  V30 1 1 1 2
M  V30 2 1 2 3
M  V30 3 1 3 4
M  V30 4 1 4 5
M  V30 5 1 5 6
M  V30 6 2 6 7
M  V30 7 1 7 8
M  V30 8 2 8 9
M  V30 9 1 9 10
M  V30 10 2 10 11
M  V30 11 1 4 12
M  V30 12 1 12 13
M  V30 13 1 13 14
M  V30 14 2 14 15
M  V30 15 1 14 16
M  V30 16 1 13 2
M  V30 17 1 11 6
M  V30 18 1 1 17
M  V30 19 1 1 18
M  V30 20 1 1 19
M  V30 21 1 3 20
M  V30 22 1 3 21
M  V30 23 1 4 22 CFG=3
M  V30 24 1 5 23
M  V30 25 1 5 24
M  V30 26 1 7 25
M  V30 27 1 8 26
M  V30 28 1 9 27
M  V30 29 1 10 28
M  V30 30 1 11 29
M  V30 31 1 12 30
M  V30 32 1 13 31 CFG=1
M  V30 33 1 16 32
M  V30 END BOND
M  V30 END CTAB
M  END
>  <catalyst_id>  (1) 
YAYFGCSJMYVTMF_WDEREUQCSA_NONE

>  <source_smiles>  (1) 
CN1C[C@H](Cc2ccccc2)N[C@H]1C(=O)O

>  <axial_configuration>  (1) 
none

>  <inchikey>  (1) 
YAYFGCSJMYVTMF-WDEREUQCSA-N

>  <build_source>  (1) 
smiles

>  <rdkit_version>  (1) 
2025.09.6

>  <random_seed>  (1) 
42

>  <generated_at>  (1) 
2026-05-19T12:29:45

$$$$
