catalyst413
     RDKit          3D

  0  0  0  0  0  0  0  0  0  0999 V3000
M  V30 BEGIN CTAB
M  V30 COUNTS 30 33 0 0 0
M  V30 BEGIN ATOM
M  V30 1 C 4.783119 -1.048391 0.172072 0
M  V30 2 C 4.513500 0.071927 0.954886 0
M  V30 3 C 3.327321 0.784990 0.770358 0
M  V30 4 C 2.397251 0.386885 -0.203236 0
M  V30 5 C 1.101432 1.151447 -0.360229 0 CFG=2
M  V30 6 C 0.028659 0.689586 0.681825 0
M  V30 7 N -1.149248 0.770510 -0.130769 0
M  V30 8 C -0.775678 0.832375 -1.441411 0
M  V30 9 N 0.474904 1.022493 -1.740161 0
M  V30 10 S -2.106125 0.540414 -2.539458 0
M  V30 11 C -3.142195 0.118596 -1.130518 0
M  V30 12 C -4.445582 -0.346517 -1.150726 0
M  V30 13 C -5.046178 -0.656804 0.069985 0
M  V30 14 C -4.339698 -0.502865 1.274298 0
M  V30 15 C -3.020802 -0.032715 1.280111 0
M  V30 16 C -2.418972 0.282042 0.074257 0
M  V30 17 C 2.681743 -0.743932 -0.981992 0
M  V30 18 C 3.868340 -1.455677 -0.796354 0
M  V30 19 H 5.708088 -1.601368 0.312135 0
M  V30 20 H 5.229878 0.392891 1.706655 0
M  V30 21 H 3.138285 1.659861 1.388577 0
M  V30 22 H 1.305466 2.222879 -0.224600 0
M  V30 23 H 0.202661 -0.337694 1.023085 0
M  V30 24 H -0.006138 1.359931 1.546416 0
M  V30 25 H -4.982202 -0.472981 -2.084893 0
M  V30 26 H -6.069739 -1.024916 0.089647 0
M  V30 27 H -4.826366 -0.751065 2.215417 0
M  V30 28 H -2.492152 0.087428 2.219795 0
M  V30 29 H 1.981705 -1.073660 -1.747668 0
M  V30 30 H 4.078723 -2.325668 -1.412990 0
M  V30 END ATOM
M  V30 BEGIN BOND
M  V30 1 2 1 2
M  V30 2 1 2 3
M  V30 3 2 3 4
M  V30 4 1 4 5
M  V30 5 1 5 6
M  V30 6 1 6 7
M  V30 7 1 7 8
M  V30 8 2 8 9
M  V30 9 1 8 10
M  V30 10 1 10 11
M  V30 11 2 11 12
M  V30 12 1 12 13
M  V30 13 2 13 14
M  V30 14 1 14 15
M  V30 15 2 15 16
M  V30 16 1 4 17
M  V30 17 2 17 18
M  V30 18 1 18 1
M  V30 19 1 9 5
M  V30 20 1 16 11
M  V30 21 1 16 7
M  V30 22 1 1 19
M  V30 23 1 2 20
M  V30 24 1 3 21
M  V30 25 1 5 22 CFG=1
M  V30 26 1 6 23
M  V30 27 1 6 24
M  V30 28 1 12 25
M  V30 29 1 13 26
M  V30 30 1 14 27
M  V30 31 1 15 28
M  V30 32 1 17 29
M  V30 33 1 18 30
M  V30 END BOND
M  V30 END CTAB
M  END
>  <catalyst_id>  (1) 
YGCWPCVAVSIFLO_LBPRGKRZSA_NONE

>  <source_smiles>  (1) 
c1ccc([C@@H]2CN3C(=N2)Sc2ccccc23)cc1

>  <axial_configuration>  (1) 
none

>  <inchikey>  (1) 
YGCWPCVAVSIFLO-LBPRGKRZSA-N

>  <build_source>  (1) 
smiles

>  <rdkit_version>  (1) 
2025.09.6

>  <random_seed>  (1) 
42

>  <generated_at>  (1) 
2026-05-19T12:37:17

$$$$
