catalyst245
     RDKit          3D

  0  0  0  0  0  0  0  0  0  0999 V3000
M  V30 BEGIN CTAB
M  V30 COUNTS 17 17 0 0 0
M  V30 BEGIN ATOM
M  V30 1 O 2.440924 -0.926808 -1.056306 0
M  V30 2 C 1.818544 -0.166923 -0.331005 0
M  V30 3 O 2.277160 1.089037 -0.119988 0
M  V30 4 C 0.534662 -0.490240 0.443250 0 CFG=2
M  V30 5 C -0.482811 -1.227448 -0.426313 0
M  V30 6 C -1.694371 -0.308382 -0.494709 0
M  V30 7 C -1.139734 1.054261 -0.142178 0
M  V30 8 N -0.160901 0.742440 0.895740 0
M  V30 9 H 3.100034 1.126700 -0.651609 0
M  V30 10 H 0.824998 -1.080504 1.318541 0
M  V30 11 H -0.765211 -2.189529 0.014940 0
M  V30 12 H -0.105594 -1.421010 -1.436705 0
M  V30 13 H -2.440554 -0.621066 0.246285 0
M  V30 14 H -2.169712 -0.324321 -1.480001 0
M  V30 15 H -0.652891 1.515683 -1.009284 0
M  V30 16 H -1.914559 1.732621 0.225333 0
M  V30 17 H 0.530017 1.495487 0.968115 0
M  V30 END ATOM
M  V30 BEGIN BOND
M  V30 1 2 1 2
M  V30 2 1 2 3
M  V30 3 1 2 4
M  V30 4 1 4 5
M  V30 5 1 5 6
M  V30 6 1 6 7
M  V30 7 1 7 8
M  V30 8 1 8 4
M  V30 9 1 3 9
M  V30 10 1 4 10 CFG=1
M  V30 11 1 5 11
M  V30 12 1 5 12
M  V30 13 1 6 13
M  V30 14 1 6 14
M  V30 15 1 7 15
M  V30 16 1 7 16
M  V30 17 1 8 17
M  V30 END BOND
M  V30 END CTAB
M  END
>  <catalyst_id>  (1) 
ONIBWKKTOPOVIA_BYPYZUCNSA_NONE

>  <source_smiles>  (1) 
O=C(O)[C@@H]1CCCN1

>  <axial_configuration>  (1) 
none

>  <inchikey>  (1) 
ONIBWKKTOPOVIA-BYPYZUCNSA-N

>  <build_source>  (1) 
smiles

>  <rdkit_version>  (1) 
2025.09.6

>  <random_seed>  (1) 
42

>  <generated_at>  (1) 
2026-05-19T12:29:44

$$$$
