catalyst67
     RDKit          3D

  0  0  0  0  0  0  0  0  0  0999 V3000
M  V30 BEGIN CTAB
M  V30 COUNTS 90 97 0 0 0
M  V30 BEGIN ATOM
M  V30 1 C 4.169883 -2.648549 0.630426 0
M  V30 2 C 4.753202 -2.367987 -0.542344 0
M  V30 3 C 4.130917 -1.822489 -1.812761 0 CFG=1
M  V30 4 C 2.606191 -1.522136 -1.803417 0
M  V30 5 N 2.289078 -0.168253 -2.336293 0
M  V30 6 C 2.849054 -0.065072 -3.702594 0
M  V30 7 C 4.377031 -0.205741 -3.703661 0
M  V30 8 C 4.866703 -0.539063 -2.284348 0 CFG=1
M  V30 9 C 4.468512 0.631659 -1.367932 0
M  V30 10 C 2.945775 0.880992 -1.472109 0 CFG=2
M  V30 11 C 2.258847 1.027427 -0.060192 0 CFG=2
M  V30 12 N 0.804682 0.819393 -0.218631 0
M  V30 13 C -0.060717 0.342012 0.744718 0
M  V30 14 S 0.284467 0.186822 2.369113 0
M  V30 15 N -1.251484 -0.004346 0.144014 0
M  V30 16 C -2.438723 -0.600151 0.773056 0 CFG=2
M  V30 17 C -2.219795 -2.066037 1.147595 0
M  V30 18 C -2.535349 -2.443228 2.461779 0
M  V30 19 C -2.363958 -3.757625 2.842709 0
M  V30 20 N -1.914128 -4.721267 2.019347 0
M  V30 21 C -1.595934 -4.380219 0.761604 0
M  V30 22 C -1.117251 -5.385537 -0.067920 0
M  V30 23 C -0.754583 -5.144789 -1.393071 0
M  V30 24 C -0.873184 -3.865395 -1.909291 0
M  V30 25 C -1.353723 -2.838390 -1.096468 0
M  V30 26 C -1.726326 -3.063718 0.254382 0
M  V30 27 C -3.691500 -0.422134 -0.160612 0 CFG=1
M  V30 28 C -5.025633 -0.607117 0.603507 0
M  V30 29 C -6.022019 0.487510 0.175631 0 CFG=2
M  V30 30 C -6.103195 0.454251 -1.361822 0
M  V30 31 C -4.732972 0.823863 -1.953705 0
M  V30 32 N -3.682396 0.886093 -0.908433 0
M  V30 33 C -4.021470 1.995820 0.023809 0
M  V30 34 C -5.467240 1.878014 0.573470 0 CFG=2
M  V30 35 C -5.525912 2.127271 2.062011 0
M  V30 36 C -6.311192 3.049034 2.634473 0
M  V30 37 C 2.558506 2.388167 0.563036 0
M  V30 38 C 1.907631 3.516229 0.037840 0
M  V30 39 C 2.195077 4.761019 0.555761 0
M  V30 40 N 3.082178 4.970534 1.544292 0
M  V30 41 C 3.703465 3.904508 2.071753 0
M  V30 42 C 4.604384 4.139733 3.101307 0
M  V30 43 C 5.303465 3.106895 3.725255 0
M  V30 44 C 5.097793 1.800294 3.314504 0
M  V30 45 C 4.199104 1.536334 2.280070 0
M  V30 46 C 3.485374 2.575503 1.628991 0
M  V30 47 H 3.113006 -2.509268 0.829037 0
M  V30 48 H 4.759271 -3.049617 1.451196 0
M  V30 49 H 5.822760 -2.570458 -0.617275 0
M  V30 50 H 4.302738 -2.596270 -2.575438 0
M  V30 51 H 2.148150 -1.633524 -0.818630 0
M  V30 52 H 2.094751 -2.269068 -2.425564 0
M  V30 53 H 2.560947 0.893702 -4.151236 0
M  V30 54 H 2.399866 -0.833032 -4.344955 0
M  V30 55 H 4.678673 -0.994683 -4.402669 0
M  V30 56 H 4.839146 0.726951 -4.048951 0
M  V30 57 H 5.954304 -0.674673 -2.283540 0
M  V30 58 H 5.006146 1.537637 -1.674593 0
M  V30 59 H 4.779071 0.414345 -0.342289 0
M  V30 60 H 2.796281 1.833597 -2.000484 0
M  V30 61 H 2.604593 0.210931 0.576656 0
M  V30 62 H 0.594675 0.458467 -1.144811 0
M  V30 63 H -1.497250 0.575070 -0.653112 0
M  V30 64 H -2.611130 -0.015125 1.685474 0
M  V30 65 H -2.895595 -1.722132 3.188971 0
M  V30 66 H -2.589928 -4.081280 3.854599 0
M  V30 67 H -1.021124 -6.391655 0.334642 0
M  V30 68 H -0.381312 -5.956827 -2.010656 0
M  V30 69 H -0.591896 -3.659449 -2.938577 0
M  V30 70 H -1.426081 -1.848772 -1.538074 0
M  V30 71 H -3.639510 -1.205939 -0.927885 0
M  V30 72 H -5.442172 -1.594494 0.367315 0
M  V30 73 H -4.882355 -0.580526 1.688492 0
M  V30 74 H -7.008549 0.306331 0.616509 0
M  V30 75 H -6.402380 -0.545470 -1.699249 0
M  V30 76 H -6.864372 1.158056 -1.718422 0
M  V30 77 H -4.793649 1.788348 -2.473697 0
M  V30 78 H -4.449824 0.094646 -2.722800 0
M  V30 79 H -3.278891 2.048693 0.828900 0
M  V30 80 H -3.918834 2.948417 -0.512941 0
M  V30 81 H -6.081438 2.638285 0.069301 0
M  V30 82 H -4.882584 1.528091 2.703574 0
M  V30 83 H -6.972604 3.682612 2.051576 0
M  V30 84 H -6.307452 3.189668 3.711527 0
M  V30 85 H 1.180394 3.424564 -0.762973 0
M  V30 86 H 1.706148 5.652709 0.174940 0
M  V30 87 H 4.763266 5.163869 3.431755 0
M  V30 88 H 5.996647 3.328593 4.531786 0
M  V30 89 H 5.626061 0.983340 3.799124 0
M  V30 90 H 4.059407 0.495208 2.004597 0
M  V30 END ATOM
M  V30 BEGIN BOND
M  V30 1 2 1 2
M  V30 2 1 2 3
M  V30 3 1 3 4
M  V30 4 1 4 5
M  V30 5 1 5 6
M  V30 6 1 6 7
M  V30 7 1 7 8
M  V30 8 1 8 9
M  V30 9 1 9 10
M  V30 10 1 10 11
M  V30 11 1 11 12
M  V30 12 1 12 13
M  V30 13 2 13 14
M  V30 14 1 13 15
M  V30 15 1 15 16
M  V30 16 1 16 17
M  V30 17 2 17 18
M  V30 18 1 18 19
M  V30 19 2 19 20
M  V30 20 1 20 21
M  V30 21 2 21 22
M  V30 22 1 22 23
M  V30 23 2 23 24
M  V30 24 1 24 25
M  V30 25 2 25 26
M  V30 26 1 16 27
M  V30 27 1 27 28
M  V30 28 1 28 29
M  V30 29 1 29 30
M  V30 30 1 30 31
M  V30 31 1 31 32
M  V30 32 1 32 33
M  V30 33 1 33 34
M  V30 34 1 34 35
M  V30 35 2 35 36
M  V30 36 1 11 37
M  V30 37 2 37 38
M  V30 38 1 38 39
M  V30 39 2 39 40
M  V30 40 1 40 41
M  V30 41 2 41 42
M  V30 42 1 42 43
M  V30 43 2 43 44
M  V30 44 1 44 45
M  V30 45 2 45 46
M  V30 46 1 8 3
M  V30 47 1 26 17
M  V30 48 1 32 27
M  V30 49 1 46 37
M  V30 50 1 10 5
M  V30 51 1 26 21
M  V30 52 1 34 29
M  V30 53 1 46 41
M  V30 54 1 1 47
M  V30 55 1 1 48
M  V30 56 1 2 49
M  V30 57 1 3 50 CFG=3
M  V30 58 1 4 51
M  V30 59 1 4 52
M  V30 60 1 6 53
M  V30 61 1 6 54
M  V30 62 1 7 55
M  V30 63 1 7 56
M  V30 64 1 8 57 CFG=3
M  V30 65 1 9 58
M  V30 66 1 9 59
M  V30 67 1 10 60 CFG=3
M  V30 68 1 11 61 CFG=1
M  V30 69 1 12 62
M  V30 70 1 15 63
M  V30 71 1 16 64 CFG=1
M  V30 72 1 18 65
M  V30 73 1 19 66
M  V30 74 1 22 67
M  V30 75 1 23 68
M  V30 76 1 24 69
M  V30 77 1 25 70
M  V30 78 1 27 71 CFG=3
M  V30 79 1 28 72
M  V30 80 1 28 73
M  V30 81 1 29 74 CFG=1
M  V30 82 1 30 75
M  V30 83 1 30 76
M  V30 84 1 31 77
M  V30 85 1 31 78
M  V30 86 1 33 79
M  V30 87 1 33 80
M  V30 88 1 34 81 CFG=3
M  V30 89 1 35 82
M  V30 90 1 36 83
M  V30 91 1 36 84
M  V30 92 1 38 85
M  V30 93 1 39 86
M  V30 94 1 42 87
M  V30 95 1 43 88
M  V30 96 1 44 89
M  V30 97 1 45 90
M  V30 END BOND
M  V30 END CTAB
M  END
>  <catalyst_id>  (1) 
FXBWBNVDKCITIC_NWAGPFMQSA_NONE

>  <source_smiles>  (1) 
C=C[C@H]1CN2CC[C@H]1C[C@@H]2[C@H](NC(=S)N[C@H](c1ccnc2ccccc12)[C@H]1C[C@@H]2CCN1C[C@@H]2C=C)c1ccnc2ccccc12

>  <axial_configuration>  (1) 
none

>  <inchikey>  (1) 
FXBWBNVDKCITIC-NWAGPFMQSA-N

>  <build_source>  (1) 
smiles

>  <rdkit_version>  (1) 
2025.09.6

>  <random_seed>  (1) 
42

>  <generated_at>  (1) 
2026-05-19T12:31:39

$$$$
