catalyst200
     RDKit          3D

  0  0  0  0  0  0  0  0  0  0999 V3000
M  V30 BEGIN CTAB
M  V30 COUNTS 57 61 0 0 0
M  V30 BEGIN ATOM
M  V30 1 C -4.845929 -0.241156 2.101803 0
M  V30 2 C -3.729796 -0.319790 1.365513 0
M  V30 3 C -3.718925 -0.570288 -0.124314 0 CFG=1
M  V30 4 C -2.984814 0.557171 -0.896165 0
M  V30 5 N -2.029651 0.015507 -1.895786 0
M  V30 6 C -2.758926 -0.921254 -2.780902 0
M  V30 7 C -3.287009 -2.138536 -2.006193 0
M  V30 8 C -3.058416 -1.921088 -0.499894 0 CFG=1
M  V30 9 C -1.535875 -1.829045 -0.281242 0
M  V30 10 C -0.934849 -0.732464 -1.204109 0 CFG=2
M  V30 11 C 0.103879 0.161304 -0.434800 0 CFG=1
M  V30 12 O 1.220037 -0.681509 -0.059517 0
M  V30 13 C 1.401554 -0.923154 1.258805 0
M  V30 14 O 0.691196 -0.524132 2.168116 0
M  V30 15 C 2.600772 -1.777351 1.467637 0
M  V30 16 C 3.500590 -2.072986 0.434193 0
M  V30 17 C 4.614452 -2.878090 0.684151 0
M  V30 18 C 4.835588 -3.388933 1.962808 0
M  V30 19 C 3.946849 -3.095585 2.996202 0
M  V30 20 C 2.832655 -2.290684 2.751098 0
M  V30 21 C 0.724598 1.326257 -1.204161 0
M  V30 22 C 0.885109 1.247101 -2.594060 0
M  V30 23 C 1.469787 2.300889 -3.267098 0
M  V30 24 N 1.923236 3.415008 -2.666212 0
M  V30 25 C 1.798852 3.506925 -1.335290 0
M  V30 26 C 2.282618 4.659150 -0.729970 0
M  V30 27 C 2.215469 4.853087 0.648919 0
M  V30 28 C 1.651496 3.870451 1.438229 0
M  V30 29 O 1.604276 4.078621 2.783954 0
M  V30 30 C 1.150951 2.705200 0.865057 0
M  V30 31 C 1.210263 2.492474 -0.536847 0
M  V30 32 H -5.832354 -0.359254 1.664177 0
M  V30 33 H -4.792762 -0.056203 3.170730 0
M  V30 34 H -2.771372 -0.189923 1.865981 0
M  V30 35 H -4.759061 -0.598661 -0.480174 0
M  V30 36 H -3.727276 1.176044 -1.417667 0
M  V30 37 H -2.469668 1.251694 -0.221996 0
M  V30 38 H -2.102113 -1.252524 -3.594761 0
M  V30 39 H -3.589047 -0.396905 -3.271000 0
M  V30 40 H -2.770771 -3.048074 -2.336253 0
M  V30 41 H -4.354520 -2.278198 -2.213121 0
M  V30 42 H -3.482974 -2.750374 0.076744 0
M  V30 43 H -1.327749 -1.635094 0.774644 0
M  V30 44 H -1.072444 -2.795070 -0.518801 0
M  V30 45 H -0.361266 -1.267811 -1.975252 0
M  V30 46 H -0.418639 0.558971 0.440704 0
M  V30 47 H 3.353419 -1.677571 -0.567940 0
M  V30 48 H 5.312619 -3.103401 -0.118645 0
M  V30 49 H 5.704683 -4.013812 2.155056 0
M  V30 50 H 4.122350 -3.491517 3.993599 0
M  V30 51 H 2.146686 -2.066249 3.565678 0
M  V30 52 H 0.555363 0.387085 -3.165407 0
M  V30 53 H 1.594705 2.273829 -4.345761 0
M  V30 54 H 2.729710 5.430451 -1.353021 0
M  V30 55 H 2.604338 5.763180 1.095223 0
M  V30 56 H 1.213838 3.296124 3.208896 0
M  V30 57 H 0.714271 1.960164 1.520201 0
M  V30 END ATOM
M  V30 BEGIN BOND
M  V30 1 2 1 2
M  V30 2 1 2 3
M  V30 3 1 3 4
M  V30 4 1 4 5
M  V30 5 1 5 6
M  V30 6 1 6 7
M  V30 7 1 7 8
M  V30 8 1 8 9
M  V30 9 1 9 10
M  V30 10 1 10 11
M  V30 11 1 11 12
M  V30 12 1 12 13
M  V30 13 2 13 14
M  V30 14 1 13 15
M  V30 15 2 15 16
M  V30 16 1 16 17
M  V30 17 2 17 18
M  V30 18 1 18 19
M  V30 19 2 19 20
M  V30 20 1 11 21
M  V30 21 2 21 22
M  V30 22 1 22 23
M  V30 23 2 23 24
M  V30 24 1 24 25
M  V30 25 2 25 26
M  V30 26 1 26 27
M  V30 27 2 27 28
M  V30 28 1 28 29
M  V30 29 1 28 30
M  V30 30 2 30 31
M  V30 31 1 8 3
M  V30 32 1 20 15
M  V30 33 1 31 21
M  V30 34 1 10 5
M  V30 35 1 31 25
M  V30 36 1 1 32
M  V30 37 1 1 33
M  V30 38 1 2 34
M  V30 39 1 3 35 CFG=3
M  V30 40 1 4 36
M  V30 41 1 4 37
M  V30 42 1 6 38
M  V30 43 1 6 39
M  V30 44 1 7 40
M  V30 45 1 7 41
M  V30 46 1 8 42 CFG=1
M  V30 47 1 9 43
M  V30 48 1 9 44
M  V30 49 1 10 45 CFG=3
M  V30 50 1 11 46 CFG=1
M  V30 51 1 16 47
M  V30 52 1 17 48
M  V30 53 1 18 49
M  V30 54 1 19 50
M  V30 55 1 20 51
M  V30 56 1 22 52
M  V30 57 1 23 53
M  V30 58 1 26 54
M  V30 59 1 27 55
M  V30 60 1 29 56
M  V30 61 1 30 57
M  V30 END BOND
M  V30 END CTAB
M  END
>  <catalyst_id>  (1) 
MKLYYDRSHXDKNA_UJXVZYGKSA_NONE

>  <source_smiles>  (1) 
C=C[C@H]1CN2CC[C@H]1C[C@@H]2[C@@H](OC(=O)c1ccccc1)c1ccnc2ccc(O)cc12

>  <axial_configuration>  (1) 
none

>  <inchikey>  (1) 
MKLYYDRSHXDKNA-UJXVZYGKSA-N

>  <build_source>  (1) 
smiles

>  <rdkit_version>  (1) 
2025.09.6

>  <random_seed>  (1) 
42

>  <generated_at>  (1) 
2026-05-19T12:30:16

$$$$
