catalyst345
     RDKit          3D

  0  0  0  0  0  0  0  0  0  0999 V3000
M  V30 BEGIN CTAB
M  V30 COUNTS 57 61 0 0 0
M  V30 BEGIN ATOM
M  V30 1 C -3.283022 -1.900073 -3.917714 0
M  V30 2 C -2.670831 -1.441691 -2.818105 0
M  V30 3 C -3.331190 -1.351072 -1.462740 0 CFG=1
M  V30 4 C -2.508207 -2.079431 -0.367357 0
M  V30 5 N -2.422568 -1.287173 0.892153 0
M  V30 6 C -3.800931 -0.901317 1.284653 0
M  V30 7 C -4.434144 0.056983 0.261492 0
M  V30 8 C -3.553298 0.110707 -1.000830 0 CFG=1
M  V30 9 C -2.201417 0.728866 -0.592320 0
M  V30 10 C -1.641699 -0.021679 0.638489 0 CFG=2
M  V30 11 C -0.084331 -0.271557 0.560021 0 CFG=2
M  V30 12 N 0.232203 -1.318509 1.578804 0
M  V30 13 S 1.374649 -2.490716 1.163834 0
M  V30 14 O 1.347488 -3.453358 2.248867 0
M  V30 15 O 1.122545 -2.918427 -0.196594 0
M  V30 16 C 2.933906 -1.619493 1.251391 0
M  V30 17 C 3.711916 -1.681660 2.397635 0
M  V30 18 C 4.899463 -0.958085 2.403573 0
M  V30 19 C 5.254908 -0.215766 1.278821 0
M  V30 20 C 4.411149 -0.229664 0.177256 0
M  V30 21 N 3.255520 -0.922965 0.128014 0
M  V30 22 C 0.685273 1.019063 0.821523 0
M  V30 23 C 0.768603 1.486520 2.143182 0
M  V30 24 C 1.437407 2.664209 2.399624 0
M  V30 25 N 2.019771 3.412896 1.446524 0
M  V30 26 C 1.958953 2.980929 0.178034 0
M  V30 27 C 2.575673 3.763131 -0.788709 0
M  V30 28 C 2.584514 3.405774 -2.136551 0
M  V30 29 C 1.965182 2.232424 -2.533642 0
M  V30 30 C 1.335346 1.429169 -1.582045 0
M  V30 31 C 1.307207 1.783030 -0.208184 0
M  V30 32 H -4.315614 -2.234892 -3.902791 0
M  V30 33 H -2.755236 -1.952171 -4.865514 0
M  V30 34 H -1.631611 -1.128553 -2.899083 0
M  V30 35 H -4.316319 -1.836188 -1.522865 0
M  V30 36 H -1.501957 -2.334332 -0.716834 0
M  V30 37 H -2.981928 -3.044525 -0.143961 0
M  V30 38 H -3.787903 -0.432194 2.276146 0
M  V30 39 H -4.419326 -1.801241 1.394552 0
M  V30 40 H -5.444185 -0.285440 0.007731 0
M  V30 41 H -4.530456 1.060620 0.693098 0
M  V30 42 H -4.033958 0.711787 -1.780603 0
M  V30 43 H -1.509763 0.698497 -1.438367 0
M  V30 44 H -2.342281 1.786685 -0.337515 0
M  V30 45 H -1.812014 0.613290 1.520638 0
M  V30 46 H 0.141507 -0.676900 -0.427589 0
M  V30 47 H -0.627794 -1.784976 1.896333 0
M  V30 48 H 3.403799 -2.261841 3.260529 0
M  V30 49 H 5.542596 -0.966194 3.279496 0
M  V30 50 H 6.171071 0.365017 1.261235 0
M  V30 51 H 4.650463 0.339534 -0.717033 0
M  V30 52 H 0.320515 0.936258 2.965362 0
M  V30 53 H 1.522773 3.051367 3.410746 0
M  V30 54 H 3.068236 4.682721 -0.479939 0
M  V30 55 H 3.078837 4.042101 -2.865407 0
M  V30 56 H 1.974499 1.933499 -3.578810 0
M  V30 57 H 0.886008 0.507004 -1.938651 0
M  V30 END ATOM
M  V30 BEGIN BOND
M  V30 1 2 1 2
M  V30 2 1 2 3
M  V30 3 1 3 4
M  V30 4 1 4 5
M  V30 5 1 5 6
M  V30 6 1 6 7
M  V30 7 1 7 8
M  V30 8 1 8 9
M  V30 9 1 9 10
M  V30 10 1 10 11
M  V30 11 1 11 12
M  V30 12 1 12 13
M  V30 13 2 13 14
M  V30 14 2 13 15
M  V30 15 1 13 16
M  V30 16 2 16 17
M  V30 17 1 17 18
M  V30 18 2 18 19
M  V30 19 1 19 20
M  V30 20 2 20 21
M  V30 21 1 11 22
M  V30 22 2 22 23
M  V30 23 1 23 24
M  V30 24 2 24 25
M  V30 25 1 25 26
M  V30 26 2 26 27
M  V30 27 1 27 28
M  V30 28 2 28 29
M  V30 29 1 29 30
M  V30 30 2 30 31
M  V30 31 1 8 3
M  V30 32 1 21 16
M  V30 33 1 31 22
M  V30 34 1 10 5
M  V30 35 1 31 26
M  V30 36 1 1 32
M  V30 37 1 1 33
M  V30 38 1 2 34
M  V30 39 1 3 35 CFG=3
M  V30 40 1 4 36
M  V30 41 1 4 37
M  V30 42 1 6 38
M  V30 43 1 6 39
M  V30 44 1 7 40
M  V30 45 1 7 41
M  V30 46 1 8 42 CFG=3
M  V30 47 1 9 43
M  V30 48 1 9 44
M  V30 49 1 10 45 CFG=1
M  V30 50 1 11 46 CFG=3
M  V30 51 1 12 47
M  V30 52 1 17 48
M  V30 53 1 18 49
M  V30 54 1 19 50
M  V30 55 1 20 51
M  V30 56 1 23 52
M  V30 57 1 24 53
M  V30 58 1 27 54
M  V30 59 1 28 55
M  V30 60 1 29 56
M  V30 61 1 30 57
M  V30 END BOND
M  V30 END CTAB
M  END
>  <catalyst_id>  (1) 
SZEWGJAUODLDPM_GASWSPIPSA_NONE

>  <source_smiles>  (1) 
C=C[C@H]1CN2CC[C@H]1C[C@@H]2[C@H](NS(=O)(=O)c1ccccn1)c1ccnc2ccccc12

>  <axial_configuration>  (1) 
none

>  <inchikey>  (1) 
SZEWGJAUODLDPM-GASWSPIPSA-N

>  <build_source>  (1) 
smiles

>  <rdkit_version>  (1) 
2025.09.6

>  <random_seed>  (1) 
42

>  <generated_at>  (1) 
2026-05-19T12:33:39

$$$$
