catalyst273
     RDKit          3D

  0  0  0  0  0  0  0  0  0  0999 V3000
M  V30 BEGIN CTAB
M  V30 COUNTS 120 129 0 0 0
M  V30 BEGIN ATOM
M  V30 1 O 1.492139 1.203548 -5.820232 0
M  V30 2 C 1.391648 0.657256 -4.750053 0
M  V30 3 C 1.633301 0.963341 -3.316786 0
M  V30 4 N 2.107201 2.077071 -2.785908 0
M  V30 5 C 1.934596 2.421221 -1.358190 0 CFG=2
M  V30 6 C 1.892312 3.952091 -1.190827 0
M  V30 7 C 3.240872 4.621902 -1.442515 0
M  V30 8 C 4.363773 3.976820 -0.640370 0
M  V30 9 C 4.395678 2.462991 -0.837735 0
M  V30 10 C 3.053804 1.778885 -0.460374 0 CFG=1
M  V30 11 N 2.753088 1.870988 1.002961 0
M  V30 12 C 3.890781 1.441355 1.843387 0
M  V30 13 C 3.514307 1.016820 3.271114 0
M  V30 14 C 2.288442 1.763290 3.771198 0
M  V30 15 C 1.113545 1.578427 2.813038 0
M  V30 16 C 1.539996 1.146718 1.403250 0
M  V30 17 C 1.146660 -0.261229 -2.924218 0
M  V30 18 N 0.946796 -0.892554 -1.785787 0
M  V30 19 C 0.457281 -2.284773 -1.636270 0 CFG=1
M  V30 20 C 1.631330 -3.242435 -1.835160 0
M  V30 21 C 1.636164 -4.051753 -2.992914 0
M  V30 22 C 2.667191 -4.949569 -3.235554 0
M  V30 23 C 3.714359 -5.042784 -2.331036 0
M  V30 24 C 3.735584 -4.235534 -1.184983 0
M  V30 25 C 4.799051 -4.322679 -0.279089 0
M  V30 26 C 4.816928 -3.517038 0.849822 0
M  V30 27 C 3.766254 -2.643818 1.029314 0
M  V30 28 N 2.730817 -2.522622 0.170780 0
M  V30 29 C 2.693829 -3.314386 -0.923180 0
M  V30 30 C -0.304904 -2.432518 -0.247079 0 CFG=1
M  V30 31 N -1.396205 -1.433029 -0.084336 0
M  V30 32 C -2.519433 -1.345791 -0.771390 0
M  V30 33 C -3.683931 -0.621798 -0.663755 0
M  V30 34 N -4.227237 0.296362 0.108997 0
M  V30 35 C -3.522192 0.984419 1.192934 0 CFG=2
M  V30 36 C -3.918742 0.315996 2.518570 0
M  V30 37 C -3.249511 0.988438 3.710703 0
M  V30 38 C -3.555259 2.480576 3.751375 0
M  V30 39 C -3.176724 3.175211 2.444666 0
M  V30 40 C -3.852480 2.517938 1.219465 0 CFG=1
M  V30 41 N -3.523097 3.314112 0.017326 0
M  V30 42 C -4.539663 3.294885 -1.032755 0
M  V30 43 C -4.165110 4.231189 -2.183061 0
M  V30 44 C -2.823407 3.867556 -2.812075 0
M  V30 45 C -2.011254 2.913972 -1.944854 0
M  V30 46 C -2.140199 3.244198 -0.459225 0
M  V30 47 C -4.258988 -1.257736 -1.873359 0
M  V30 48 O -5.267327 -1.202614 -2.532256 0
M  V30 49 C -3.009912 -2.044102 -1.987392 0
M  V30 50 O -2.648749 -2.882374 -2.778102 0
M  V30 51 C -0.800292 -3.802257 0.204724 0
M  V30 52 C -1.118039 -4.817911 -0.716551 0
M  V30 53 C -1.543295 -6.066454 -0.279428 0
M  V30 54 C -1.678046 -6.310831 1.081603 0
M  V30 55 C -1.394913 -5.301797 2.013504 0
M  V30 56 C -1.549627 -5.535641 3.387727 0
M  V30 57 C -1.277394 -4.526727 4.301002 0
M  V30 58 C -0.858567 -3.309902 3.805908 0
M  V30 59 N -0.698445 -3.048212 2.489191 0
M  V30 60 C -0.954642 -4.027833 1.587534 0
M  V30 61 C 0.889113 -0.671752 -4.329457 0
M  V30 62 O 0.475843 -1.622018 -4.948850 0
M  V30 63 H 2.228908 2.890408 -3.388087 0
M  V30 64 H 0.947659 2.050116 -1.072192 0
M  V30 65 H 1.146952 4.384424 -1.869383 0
M  V30 66 H 1.562813 4.192797 -0.173466 0
M  V30 67 H 3.174216 5.687183 -1.191050 0
M  V30 68 H 3.484281 4.570562 -2.509925 0
M  V30 69 H 5.323675 4.405833 -0.949492 0
M  V30 70 H 4.240898 4.215468 0.421518 0
M  V30 71 H 4.623700 2.248471 -1.889985 0
M  V30 72 H 5.235225 2.038696 -0.278634 0
M  V30 73 H 3.154312 0.717403 -0.718210 0
M  V30 74 H 4.601354 2.272354 1.915693 0
M  V30 75 H 4.419076 0.595311 1.385830 0
M  V30 76 H 4.361437 1.191212 3.944224 0
M  V30 77 H 3.307754 -0.059976 3.293338 0
M  V30 78 H 2.526050 2.831297 3.858600 0
M  V30 79 H 2.011356 1.420741 4.773583 0
M  V30 80 H 0.426395 0.824021 3.211847 0
M  V30 81 H 0.549545 2.518461 2.765415 0
M  V30 82 H 0.686734 1.348311 0.754390 0
M  V30 83 H 1.705738 0.062760 1.366435 0
M  V30 84 H 1.413156 -0.584812 -0.933883 0
M  V30 85 H -0.273830 -2.465845 -2.428597 0
M  V30 86 H 0.826060 -3.980095 -3.718162 0
M  V30 87 H 2.656433 -5.565021 -4.132201 0
M  V30 88 H 4.518640 -5.746824 -2.528896 0
M  V30 89 H 5.619834 -5.010532 -0.456401 0
M  V30 90 H 5.625297 -3.569583 1.568110 0
M  V30 91 H 3.723712 -1.994708 1.898078 0
M  V30 92 H 0.433065 -2.125540 0.501967 0
M  V30 93 H -1.397749 -1.108045 0.884360 0
M  V30 94 H -5.176075 0.634861 -0.055029 0
M  V30 95 H -2.439213 0.866969 1.073700 0
M  V30 96 H -5.008668 0.347846 2.643351 0
M  V30 97 H -3.639524 -0.745121 2.500923 0
M  V30 98 H -2.165286 0.835705 3.653772 0
M  V30 99 H -3.590533 0.515310 4.637543 0
M  V30 100 H -4.623292 2.630829 3.948756 0
M  V30 101 H -3.012015 2.941961 4.584262 0
M  V30 102 H -3.469393 4.230191 2.510406 0
M  V30 103 H -2.085493 3.154161 2.340490 0
M  V30 104 H -4.935204 2.617082 1.387476 0
M  V30 105 H -5.501334 3.624784 -0.625394 0
M  V30 106 H -4.693208 2.290430 -1.438051 0
M  V30 107 H -4.126810 5.263838 -1.815978 0
M  V30 108 H -4.943710 4.206543 -2.951993 0
M  V30 109 H -2.978708 3.407077 -3.793575 0
M  V30 110 H -2.251933 4.785566 -2.996061 0
M  V30 111 H -2.348784 1.884849 -2.119633 0
M  V30 112 H -0.961830 2.949677 -2.255665 0
M  V30 113 H -1.678356 4.222449 -0.276188 0
M  V30 114 H -1.534986 2.524699 0.100653 0
M  V30 115 H -1.043006 -4.649889 -1.788523 0
M  V30 116 H -1.775542 -6.845819 -1.000866 0
M  V30 117 H -2.011125 -7.291771 1.410806 0
M  V30 118 H -1.886708 -6.504289 3.749849 0
M  V30 119 H -1.391658 -4.686658 5.366734 0
M  V30 120 H -0.635398 -2.481236 4.471558 0
M  V30 END ATOM
M  V30 BEGIN BOND
M  V30 1 2 1 2
M  V30 2 1 2 3
M  V30 3 1 3 4
M  V30 4 1 4 5
M  V30 5 1 5 6
M  V30 6 1 6 7
M  V30 7 1 7 8
M  V30 8 1 8 9
M  V30 9 1 9 10
M  V30 10 1 10 11
M  V30 11 1 11 12
M  V30 12 1 12 13
M  V30 13 1 13 14
M  V30 14 1 14 15
M  V30 15 1 15 16
M  V30 16 2 3 17
M  V30 17 1 17 18
M  V30 18 1 18 19
M  V30 19 1 19 20
M  V30 20 2 20 21
M  V30 21 1 21 22
M  V30 22 2 22 23
M  V30 23 1 23 24
M  V30 24 2 24 25
M  V30 25 1 25 26
M  V30 26 2 26 27
M  V30 27 1 27 28
M  V30 28 2 28 29
M  V30 29 1 19 30
M  V30 30 1 30 31
M  V30 31 1 31 32
M  V30 32 2 32 33
M  V30 33 1 33 34
M  V30 34 1 34 35
M  V30 35 1 35 36
M  V30 36 1 36 37
M  V30 37 1 37 38
M  V30 38 1 38 39
M  V30 39 1 39 40
M  V30 40 1 40 41
M  V30 41 1 41 42
M  V30 42 1 42 43
M  V30 43 1 43 44
M  V30 44 1 44 45
M  V30 45 1 45 46
M  V30 46 1 33 47
M  V30 47 2 47 48
M  V30 48 1 47 49
M  V30 49 2 49 50
M  V30 50 1 30 51
M  V30 51 2 51 52
M  V30 52 1 52 53
M  V30 53 2 53 54
M  V30 54 1 54 55
M  V30 55 2 55 56
M  V30 56 1 56 57
M  V30 57 2 57 58
M  V30 58 1 58 59
M  V30 59 2 59 60
M  V30 60 1 17 61
M  V30 61 2 61 62
M  V30 62 1 61 2
M  V30 63 1 10 5
M  V30 64 1 16 11
M  V30 65 1 29 20
M  V30 66 1 49 32
M  V30 67 1 60 51
M  V30 68 1 29 24
M  V30 69 1 40 35
M  V30 70 1 46 41
M  V30 71 1 60 55
M  V30 72 1 4 63
M  V30 73 1 5 64 CFG=1
M  V30 74 1 6 65
M  V30 75 1 6 66
M  V30 76 1 7 67
M  V30 77 1 7 68
M  V30 78 1 8 69
M  V30 79 1 8 70
M  V30 80 1 9 71
M  V30 81 1 9 72
M  V30 82 1 10 73 CFG=3
M  V30 83 1 12 74
M  V30 84 1 12 75
M  V30 85 1 13 76
M  V30 86 1 13 77
M  V30 87 1 14 78
M  V30 88 1 14 79
M  V30 89 1 15 80
M  V30 90 1 15 81
M  V30 91 1 16 82
M  V30 92 1 16 83
M  V30 93 1 18 84
M  V30 94 1 19 85 CFG=3
M  V30 95 1 21 86
M  V30 96 1 22 87
M  V30 97 1 23 88
M  V30 98 1 25 89
M  V30 99 1 26 90
M  V30 100 1 27 91
M  V30 101 1 30 92 CFG=1
M  V30 102 1 31 93
M  V30 103 1 34 94
M  V30 104 1 35 95 CFG=3
M  V30 105 1 36 96
M  V30 106 1 36 97
M  V30 107 1 37 98
M  V30 108 1 37 99
M  V30 109 1 38 100
M  V30 110 1 38 101
M  V30 111 1 39 102
M  V30 112 1 39 103
M  V30 113 1 40 104 CFG=1
M  V30 114 1 42 105
M  V30 115 1 42 106
M  V30 116 1 43 107
M  V30 117 1 43 108
M  V30 118 1 44 109
M  V30 119 1 44 110
M  V30 120 1 45 111
M  V30 121 1 45 112
M  V30 122 1 46 113
M  V30 123 1 46 114
M  V30 124 1 52 115
M  V30 125 1 53 116
M  V30 126 1 54 117
M  V30 127 1 56 118
M  V30 128 1 57 119
M  V30 129 1 58 120
M  V30 END BOND
M  V30 END CTAB
M  END
>  <catalyst_id>  (1) 
QHSHHKVRLRHZRJ_GCPHCDFISA_NONE

>  <source_smiles>  (1) 
O=c1c(N[C@@H]2CCCC[C@H]2N2CCCCC2)c(N[C@@H](c2cccc3cccnc23)[C@@H](Nc2c(N[C@@H]3CCCC[C@H]3N3CCCCC3)c(=O)c2=O)c2cccc3cccnc23)c1=O

>  <axial_configuration>  (1) 
none

>  <inchikey>  (1) 
QHSHHKVRLRHZRJ-GCPHCDFISA-N

>  <build_source>  (1) 
smiles

>  <rdkit_version>  (1) 
2025.09.6

>  <random_seed>  (1) 
42

>  <generated_at>  (1) 
2026-05-19T12:39:34

$$$$
