catalyst140
     RDKit          3D

  0  0  0  0  0  0  0  0  0  0999 V3000
M  V30 BEGIN CTAB
M  V30 COUNTS 67 68 0 0 0
M  V30 BEGIN ATOM
M  V30 1 C -5.473539 4.287725 -1.330664 0
M  V30 2 C -4.031058 3.948051 -1.114957 0
M  V30 3 O -3.145615 4.152177 -1.931911 0
M  V30 4 O -3.864164 3.351028 0.096632 0
M  V30 5 C -2.511520 3.005771 0.429418 0
M  V30 6 C -2.015830 1.717596 -0.251913 0 CFG=1
M  V30 7 O -0.637268 1.555140 0.103561 0
M  V30 8 C -0.031410 0.473912 -0.593290 0 CFG=1
M  V30 9 N 1.385009 0.539907 -0.285886 0
M  V30 10 C 2.305141 1.352457 -0.871665 0
M  V30 11 S 2.044963 2.378830 -2.161615 0
M  V30 12 N 3.570908 1.291060 -0.372342 0
M  V30 13 C 4.183359 0.249821 0.471610 0 CFG=1
M  V30 14 C 4.598686 -0.947640 -0.393326 0
M  V30 15 C 5.294870 -2.023409 0.434691 0
M  V30 16 C 6.493116 -1.460797 1.193621 0
M  V30 17 C 6.104687 -0.263528 2.059036 0
M  V30 18 C 5.407820 0.822604 1.233874 0 CFG=2
M  V30 19 N 5.006125 1.926855 2.114529 0
M  V30 20 C -0.668635 -0.844869 -0.121000 0 CFG=2
M  V30 21 O -0.117274 -1.969680 -0.845313 0
M  V30 22 C 0.978878 -2.548857 -0.284594 0
M  V30 23 C 1.461911 -3.675025 -1.145184 0
M  V30 24 O 1.503818 -2.206794 0.765997 0
M  V30 25 C -2.181363 -0.805742 -0.387626 0 CFG=1
M  V30 26 O -2.739575 -1.975837 0.268698 0
M  V30 27 C -3.766907 -2.611085 -0.353093 0
M  V30 28 C -4.207518 -3.789624 0.459086 0
M  V30 29 O -4.272725 -2.273215 -1.413535 0
M  V30 30 C -2.826619 0.478048 0.179513 0 CFG=2
M  V30 31 O -4.170115 0.611326 -0.334334 0
M  V30 32 C -5.179085 0.147398 0.450099 0
M  V30 33 C -6.499629 0.370833 -0.219454 0
M  V30 34 O -5.042878 -0.366174 1.551214 0
M  V30 35 H -6.033049 3.381644 -1.572419 0
M  V30 36 H -5.884731 4.765069 -0.437141 0
M  V30 37 H -5.557657 4.996012 -2.159816 0
M  V30 38 H -2.468081 2.886269 1.518736 0
M  V30 39 H -1.839938 3.845613 0.206777 0
M  V30 40 H -2.098935 1.845039 -1.338793 0
M  V30 41 H -0.158781 0.590264 -1.676078 0
M  V30 42 H 1.618187 0.211022 0.639981 0
M  V30 43 H 4.218153 1.865382 -0.900954 0
M  V30 44 H 3.446368 -0.089030 1.207608 0
M  V30 45 H 5.271953 -0.612004 -1.193153 0
M  V30 46 H 3.723488 -1.378575 -0.892127 0
M  V30 47 H 5.624068 -2.836999 -0.221443 0
M  V30 48 H 4.580953 -2.455964 1.146316 0
M  V30 49 H 6.929860 -2.243690 1.823889 0
M  V30 50 H 7.267861 -1.157273 0.478741 0
M  V30 51 H 5.443703 -0.605785 2.866380 0
M  V30 52 H 7.004899 0.142535 2.536650 0
M  V30 53 H 6.119461 1.225511 0.500775 0
M  V30 54 H 4.407774 2.566349 1.587867 0
M  V30 55 H 5.826260 2.457075 2.403245 0
M  V30 56 H -0.522893 -0.982661 0.959799 0
M  V30 57 H 1.739874 -3.294174 -2.131117 0
M  V30 58 H 0.682998 -4.436666 -1.230982 0
M  V30 59 H 2.345043 -4.128316 -0.685782 0
M  V30 60 H -2.357437 -0.877366 -1.469138 0
M  V30 61 H -4.571560 -3.453285 1.433020 0
M  V30 62 H -5.021693 -4.303257 -0.060091 0
M  V30 63 H -3.376120 -4.488815 0.578845 0
M  V30 64 H -2.831130 0.420474 1.276178 0
M  V30 65 H -7.262318 -0.237816 0.274551 0
M  V30 66 H -6.775922 1.424715 -0.145619 0
M  V30 67 H -6.447222 0.060439 -1.266458 0
M  V30 END ATOM
M  V30 BEGIN BOND
M  V30 1 1 1 2
M  V30 2 2 2 3
M  V30 3 1 2 4
M  V30 4 1 4 5
M  V30 5 1 5 6
M  V30 6 1 6 7
M  V30 7 1 7 8
M  V30 8 1 8 9
M  V30 9 1 9 10
M  V30 10 2 10 11
M  V30 11 1 10 12
M  V30 12 1 12 13
M  V30 13 1 13 14
M  V30 14 1 14 15
M  V30 15 1 15 16
M  V30 16 1 16 17
M  V30 17 1 17 18
M  V30 18 1 18 19
M  V30 19 1 8 20
M  V30 20 1 20 21
M  V30 21 1 21 22
M  V30 22 1 22 23
M  V30 23 2 22 24
M  V30 24 1 20 25
M  V30 25 1 25 26
M  V30 26 1 26 27
M  V30 27 1 27 28
M  V30 28 2 27 29
M  V30 29 1 25 30
M  V30 30 1 30 31
M  V30 31 1 31 32
M  V30 32 1 32 33
M  V30 33 2 32 34
M  V30 34 1 30 6
M  V30 35 1 18 13
M  V30 36 1 1 35
M  V30 37 1 1 36
M  V30 38 1 1 37
M  V30 39 1 5 38
M  V30 40 1 5 39
M  V30 41 1 6 40 CFG=3
M  V30 42 1 8 41 CFG=3
M  V30 43 1 9 42
M  V30 44 1 12 43
M  V30 45 1 13 44 CFG=1
M  V30 46 1 14 45
M  V30 47 1 14 46
M  V30 48 1 15 47
M  V30 49 1 15 48
M  V30 50 1 16 49
M  V30 51 1 16 50
M  V30 52 1 17 51
M  V30 53 1 17 52
M  V30 54 1 18 53 CFG=3
M  V30 55 1 19 54
M  V30 56 1 19 55
M  V30 57 1 20 56 CFG=1
M  V30 58 1 23 57
M  V30 59 1 23 58
M  V30 60 1 23 59
M  V30 61 1 25 60 CFG=3
M  V30 62 1 28 61
M  V30 63 1 28 62
M  V30 64 1 28 63
M  V30 65 1 30 64 CFG=1
M  V30 66 1 33 65
M  V30 67 1 33 66
M  V30 68 1 33 67
M  V30 END BOND
M  V30 END CTAB
M  END
>  <catalyst_id>  (1) 
JSUQXDLAAYLMNS_APPYSEGRSA_NONE

>  <source_smiles>  (1) 
CC(=O)OC[C@H]1O[C@@H](NC(=S)N[C@H]2CCCC[C@@H]2N)[C@H](OC(C)=O)[C@@H](OC(C)=O)[C@@H]1OC(C)=O

>  <axial_configuration>  (1) 
none

>  <inchikey>  (1) 
JSUQXDLAAYLMNS-APPYSEGRSA-N

>  <build_source>  (1) 
smiles

>  <rdkit_version>  (1) 
2025.09.6

>  <random_seed>  (1) 
42

>  <generated_at>  (1) 
2026-05-19T12:33:07

$$$$
