catalyst64
     RDKit          3D

  0  0  0  0  0  0  0  0  0  0999 V3000
M  V30 BEGIN CTAB
M  V30 COUNTS 91 92 0 0 0
M  V30 BEGIN ATOM
M  V30 1 C 7.633577 2.441950 2.657320 0
M  V30 2 C 7.601168 0.985336 2.221100 0
M  V30 3 C 6.188135 0.444958 1.976333 0
M  V30 4 C 5.489688 1.103472 0.776435 0
M  V30 5 N 4.135586 0.587260 0.553200 0
M  V30 6 C 4.030789 -0.797465 0.084137 0
M  V30 7 C 4.101945 -1.123659 -1.416076 0
M  V30 8 C 5.420148 -0.832626 -2.132786 0
M  V30 9 C 6.594515 -1.633257 -1.591908 0
M  V30 10 C 3.179060 1.595397 0.042188 0 CFG=1
M  V30 11 C 3.563302 2.237031 -1.307077 0
M  V30 12 C 2.613521 3.374489 -1.680900 0
M  V30 13 C 1.160252 2.918652 -1.685366 0
M  V30 14 C 0.763038 2.300837 -0.349401 0
M  V30 15 C 1.683864 1.129521 0.033705 0 CFG=2
M  V30 16 N 1.305197 0.588551 1.347315 0
M  V30 17 C 0.232185 -0.155031 1.721964 0
M  V30 18 S 0.116969 -0.585041 3.329741 0
M  V30 19 N -0.648227 -0.477037 0.738835 0
M  V30 20 C -1.938037 -1.125137 0.863631 0 CFG=2
M  V30 21 O -2.053419 -1.886309 -0.334094 0
M  V30 22 C -3.255117 -2.667657 -0.357534 0 CFG=2
M  V30 23 C -3.198897 -3.616634 -1.566451 0
M  V30 24 O -3.312186 -2.882686 -2.800978 0
M  V30 25 C -4.396023 -3.157296 -3.577341 0
M  V30 26 C -4.385842 -2.287489 -4.796443 0
M  V30 27 O -5.264629 -3.979354 -3.321542 0
M  V30 28 C -4.470151 -1.732724 -0.392839 0 CFG=1
M  V30 29 O -5.669544 -2.535577 -0.343734 0
M  V30 30 C -6.684318 -2.164172 -1.173991 0
M  V30 31 C -7.843428 -3.098746 -1.013659 0
M  V30 32 O -6.664735 -1.209990 -1.938013 0
M  V30 33 C -4.447750 -0.790303 0.821564 0 CFG=2
M  V30 34 O -5.474379 0.210119 0.595949 0
M  V30 35 C -6.180214 0.642701 1.671391 0
M  V30 36 C -7.173115 1.680546 1.247908 0
M  V30 37 O -6.032414 0.252919 2.820387 0
M  V30 38 C -3.083394 -0.094747 0.970811 0 CFG=1
M  V30 39 O -3.012537 0.535926 2.268707 0
M  V30 40 C -3.190082 1.880594 2.315065 0
M  V30 41 C -3.047130 2.370439 3.723036 0
M  V30 42 O -3.434995 2.598382 1.355778 0
M  V30 43 H 8.655603 2.730753 2.923235 0
M  V30 44 H 7.301004 3.109309 1.857148 0
M  V30 45 H 6.997246 2.604831 3.532818 0
M  V30 46 H 8.070715 0.379609 3.005572 0
M  V30 47 H 8.209881 0.860093 1.318038 0
M  V30 48 H 5.581648 0.584696 2.879988 0
M  V30 49 H 6.279419 -0.634959 1.821473 0
M  V30 50 H 6.108697 1.010260 -0.119527 0
M  V30 51 H 5.429578 2.176687 0.992316 0
M  V30 52 H 3.073020 -1.195107 0.441513 0
M  V30 53 H 4.757545 -1.429032 0.605041 0
M  V30 54 H 3.889523 -2.195951 -1.527125 0
M  V30 55 H 3.286734 -0.623275 -1.947483 0
M  V30 56 H 5.293852 -1.087651 -3.192392 0
M  V30 57 H 5.652471 0.235337 -2.106487 0
M  V30 58 H 6.830609 -1.360535 -0.560316 0
M  V30 59 H 7.487094 -1.445241 -2.197233 0
M  V30 60 H 6.384891 -2.707126 -1.624635 0
M  V30 61 H 3.211862 2.408616 0.784338 0
M  V30 62 H 4.581779 2.639738 -1.270709 0
M  V30 63 H 3.543546 1.498677 -2.112518 0
M  V30 64 H 2.736276 4.200901 -0.969984 0
M  V30 65 H 2.879652 3.764162 -2.670082 0
M  V30 66 H 1.006909 2.186302 -2.487454 0
M  V30 67 H 0.508705 3.772396 -1.903391 0
M  V30 68 H 0.796988 3.069580 0.433914 0
M  V30 69 H -0.280881 1.973330 -0.406818 0
M  V30 70 H 1.553229 0.328658 -0.702693 0
M  V30 71 H 1.991455 0.725501 2.084414 0
M  V30 72 H -0.388050 -0.284063 -0.213004 0
M  V30 73 H -1.927780 -1.796924 1.728850 0
M  V30 74 H -3.281173 -3.299479 0.540784 0
M  V30 75 H -3.965590 -4.392911 -1.470775 0
M  V30 76 H -2.225063 -4.117929 -1.594705 0
M  V30 77 H -3.471769 -2.461967 -5.369488 0
M  V30 78 H -5.243956 -2.537365 -5.426888 0
M  V30 79 H -4.461993 -1.237827 -4.501874 0
M  V30 80 H -4.433621 -1.121285 -1.303813 0
M  V30 81 H -8.238233 -3.026838 0.002748 0
M  V30 82 H -7.528645 -4.122047 -1.233267 0
M  V30 83 H -8.632947 -2.820608 -1.717582 0
M  V30 84 H -4.689306 -1.364447 1.725710 0
M  V30 85 H -7.864973 1.254838 0.516734 0
M  V30 86 H -7.746523 2.010154 2.118979 0
M  V30 87 H -6.650294 2.543127 0.827294 0
M  V30 88 H -2.970103 0.645060 0.166815 0
M  V30 89 H -2.014296 2.245608 4.056005 0
M  V30 90 H -3.731919 1.825686 4.378065 0
M  V30 91 H -3.305194 3.432520 3.764257 0
M  V30 END ATOM
M  V30 BEGIN BOND
M  V30 1 1 1 2
M  V30 2 1 2 3
M  V30 3 1 3 4
M  V30 4 1 4 5
M  V30 5 1 5 6
M  V30 6 1 6 7
M  V30 7 1 7 8
M  V30 8 1 8 9
M  V30 9 1 5 10
M  V30 10 1 10 11
M  V30 11 1 11 12
M  V30 12 1 12 13
M  V30 13 1 13 14
M  V30 14 1 14 15
M  V30 15 1 15 16
M  V30 16 1 16 17
M  V30 17 2 17 18
M  V30 18 1 17 19
M  V30 19 1 19 20
M  V30 20 1 20 21
M  V30 21 1 21 22
M  V30 22 1 22 23
M  V30 23 1 23 24
M  V30 24 1 24 25
M  V30 25 1 25 26
M  V30 26 2 25 27
M  V30 27 1 22 28
M  V30 28 1 28 29
M  V30 29 1 29 30
M  V30 30 1 30 31
M  V30 31 2 30 32
M  V30 32 1 28 33
M  V30 33 1 33 34
M  V30 34 1 34 35
M  V30 35 1 35 36
M  V30 36 2 35 37
M  V30 37 1 33 38
M  V30 38 1 38 39
M  V30 39 1 39 40
M  V30 40 1 40 41
M  V30 41 2 40 42
M  V30 42 1 15 10
M  V30 43 1 38 20
M  V30 44 1 1 43
M  V30 45 1 1 44
M  V30 46 1 1 45
M  V30 47 1 2 46
M  V30 48 1 2 47
M  V30 49 1 3 48
M  V30 50 1 3 49
M  V30 51 1 4 50
M  V30 52 1 4 51
M  V30 53 1 6 52
M  V30 54 1 6 53
M  V30 55 1 7 54
M  V30 56 1 7 55
M  V30 57 1 8 56
M  V30 58 1 8 57
M  V30 59 1 9 58
M  V30 60 1 9 59
M  V30 61 1 9 60
M  V30 62 1 10 61 CFG=1
M  V30 63 1 11 62
M  V30 64 1 11 63
M  V30 65 1 12 64
M  V30 66 1 12 65
M  V30 67 1 13 66
M  V30 68 1 13 67
M  V30 69 1 14 68
M  V30 70 1 14 69
M  V30 71 1 15 70 CFG=3
M  V30 72 1 16 71
M  V30 73 1 19 72
M  V30 74 1 20 73 CFG=1
M  V30 75 1 22 74 CFG=1
M  V30 76 1 23 75
M  V30 77 1 23 76
M  V30 78 1 26 77
M  V30 79 1 26 78
M  V30 80 1 26 79
M  V30 81 1 28 80 CFG=3
M  V30 82 1 31 81
M  V30 83 1 31 82
M  V30 84 1 31 83
M  V30 85 1 33 84 CFG=1
M  V30 86 1 36 85
M  V30 87 1 36 86
M  V30 88 1 36 87
M  V30 89 1 38 88 CFG=3
M  V30 90 1 41 89
M  V30 91 1 41 90
M  V30 92 1 41 91
M  V30 END BOND
M  V30 END CTAB
M  END
>  <catalyst_id>  (1) 
FVFCVAISLBBOAB_MZAKXTSGSA_NONE

>  <source_smiles>  (1) 
CCCCN(CCCC)[C@H]1CCCC[C@@H]1NC(=S)N[C@@H]1O[C@H](COC(C)=O)[C@@H](OC(C)=O)[C@H](OC(C)=O)[C@H]1OC(C)=O

>  <axial_configuration>  (1) 
none

>  <inchikey>  (1) 
FVFCVAISLBBOAB-MZAKXTSGSA-N

>  <build_source>  (1) 
smiles

>  <rdkit_version>  (1) 
2025.09.6

>  <random_seed>  (1) 
42

>  <generated_at>  (1) 
2026-05-19T12:33:13

$$$$
