catalyst430
     RDKit          3D

  0  0  0  0  0  0  0  0  0  0999 V3000
M  V30 BEGIN CTAB
M  V30 COUNTS 73 74 0 0 0
M  V30 BEGIN ATOM
M  V30 1 C -2.524422 -4.468322 0.635629 0
M  V30 2 C -2.278376 -3.293972 1.531815 0
M  V30 3 O -2.902184 -3.064231 2.558099 0
M  V30 4 O -1.279741 -2.521997 1.023498 0
M  V30 5 C -0.935833 -1.336113 1.765053 0
M  V30 6 C -1.228990 -0.069628 0.940630 0 CFG=1
M  V30 7 O -0.310811 -0.023051 -0.156540 0
M  V30 8 C -0.400619 1.184625 -0.910262 0 CFG=1
M  V30 9 N 0.632214 1.088288 -1.925300 0
M  V30 10 C 1.981217 1.115808 -1.725932 0
M  V30 11 S 2.968391 1.442914 -3.027214 0
M  V30 12 N 2.372277 0.887691 -0.436577 0
M  V30 13 C 3.754721 0.717676 0.052935 0 CFG=1
M  V30 14 C 3.828194 1.068273 1.548968 0
M  V30 15 C 3.128499 0.042601 2.439460 0
M  V30 16 C 3.574543 -1.385724 2.144163 0
M  V30 17 C 3.482850 -1.712664 0.654350 0
M  V30 18 C 4.307501 -0.729617 -0.220937 0 CFG=2
M  V30 19 N 5.779694 -0.854351 0.027458 0
M  V30 20 C 6.266599 -2.220371 -0.208962 0
M  V30 21 C 6.551253 0.057066 -0.831217 0
M  V30 22 C -1.809491 1.376651 -1.508308 0 CFG=2
M  V30 23 O -1.957362 2.709655 -2.068511 0
M  V30 24 C -1.531214 2.877337 -3.347516 0
M  V30 25 C -1.793511 4.277311 -3.807006 0
M  V30 26 O -0.990184 2.011273 -4.019207 0
M  V30 27 C -2.882018 1.244181 -0.415203 0 CFG=1
M  V30 28 O -4.161238 1.184148 -1.100023 0
M  V30 29 C -5.217556 1.790617 -0.497437 0
M  V30 30 C -6.450863 1.619873 -1.329445 0
M  V30 31 O -5.178472 2.384313 0.570490 0
M  V30 32 C -2.675742 -0.024389 0.428598 0 CFG=2
M  V30 33 O -3.540839 -0.005580 1.582885 0
M  V30 34 C -4.699942 -0.714262 1.491705 0
M  V30 35 C -5.458780 -0.629544 2.779541 0
M  V30 36 O -5.081762 -1.315641 0.497465 0
M  V30 37 H -2.870810 -4.121205 -0.341004 0
M  V30 38 H -1.608659 -5.056029 0.533555 0
M  V30 39 H -3.297188 -5.104649 1.076287 0
M  V30 40 H 0.138845 -1.403872 1.963794 0
M  V30 41 H -1.444423 -1.286358 2.733780 0
M  V30 42 H -1.028261 0.789456 1.595216 0
M  V30 43 H -0.138431 2.036026 -0.268592 0
M  V30 44 H 0.355795 1.267657 -2.891387 0
M  V30 45 H 1.665977 0.382754 0.086640 0
M  V30 46 H 4.347273 1.460209 -0.487262 0
M  V30 47 H 4.880071 1.140050 1.852244 0
M  V30 48 H 3.384438 2.055947 1.724734 0
M  V30 49 H 3.323684 0.277476 3.492170 0
M  V30 50 H 2.043771 0.120213 2.302599 0
M  V30 51 H 2.949191 -2.085164 2.710897 0
M  V30 52 H 4.602950 -1.528596 2.496192 0
M  V30 53 H 3.781558 -2.751944 0.483887 0
M  V30 54 H 2.429689 -1.678422 0.347326 0
M  V30 55 H 4.113597 -0.990534 -1.269731 0
M  V30 56 H 7.357945 -2.267179 -0.111403 0
M  V30 57 H 5.998240 -2.587296 -1.206031 0
M  V30 58 H 5.885964 -2.917541 0.542922 0
M  V30 59 H 7.628058 -0.106653 -0.702912 0
M  V30 60 H 6.390347 1.102561 -0.554624 0
M  V30 61 H 6.311892 -0.074182 -1.892398 0
M  V30 62 H -2.011889 0.624367 -2.283552 0
M  V30 63 H -1.206918 4.978767 -3.208777 0
M  V30 64 H -2.860408 4.500436 -3.726266 0
M  V30 65 H -1.498068 4.375662 -4.855452 0
M  V30 66 H -2.854471 2.136751 0.224065 0
M  V30 67 H -7.290638 2.120537 -0.839192 0
M  V30 68 H -6.687394 0.557511 -1.427816 0
M  V30 69 H -6.300687 2.073930 -2.312118 0
M  V30 70 H -2.873924 -0.900022 -0.202798 0
M  V30 71 H -4.827469 -0.964830 3.606370 0
M  V30 72 H -6.333525 -1.283956 2.727708 0
M  V30 73 H -5.794124 0.397279 2.943784 0
M  V30 END ATOM
M  V30 BEGIN BOND
M  V30 1 1 1 2
M  V30 2 2 2 3
M  V30 3 1 2 4
M  V30 4 1 4 5
M  V30 5 1 5 6
M  V30 6 1 6 7
M  V30 7 1 7 8
M  V30 8 1 8 9
M  V30 9 1 9 10
M  V30 10 2 10 11
M  V30 11 1 10 12
M  V30 12 1 12 13
M  V30 13 1 13 14
M  V30 14 1 14 15
M  V30 15 1 15 16
M  V30 16 1 16 17
M  V30 17 1 17 18
M  V30 18 1 18 19
M  V30 19 1 19 20
M  V30 20 1 19 21
M  V30 21 1 8 22
M  V30 22 1 22 23
M  V30 23 1 23 24
M  V30 24 1 24 25
M  V30 25 2 24 26
M  V30 26 1 22 27
M  V30 27 1 27 28
M  V30 28 1 28 29
M  V30 29 1 29 30
M  V30 30 2 29 31
M  V30 31 1 27 32
M  V30 32 1 32 33
M  V30 33 1 33 34
M  V30 34 1 34 35
M  V30 35 2 34 36
M  V30 36 1 32 6
M  V30 37 1 18 13
M  V30 38 1 1 37
M  V30 39 1 1 38
M  V30 40 1 1 39
M  V30 41 1 5 40
M  V30 42 1 5 41
M  V30 43 1 6 42 CFG=1
M  V30 44 1 8 43 CFG=1
M  V30 45 1 9 44
M  V30 46 1 12 45
M  V30 47 1 13 46 CFG=3
M  V30 48 1 14 47
M  V30 49 1 14 48
M  V30 50 1 15 49
M  V30 51 1 15 50
M  V30 52 1 16 51
M  V30 53 1 16 52
M  V30 54 1 17 53
M  V30 55 1 17 54
M  V30 56 1 18 55 CFG=3
M  V30 57 1 20 56
M  V30 58 1 20 57
M  V30 59 1 20 58
M  V30 60 1 21 59
M  V30 61 1 21 60
M  V30 62 1 21 61
M  V30 63 1 22 62 CFG=3
M  V30 64 1 25 63
M  V30 65 1 25 64
M  V30 66 1 25 65
M  V30 67 1 27 66 CFG=1
M  V30 68 1 30 67
M  V30 69 1 30 68
M  V30 70 1 30 69
M  V30 71 1 32 70 CFG=3
M  V30 72 1 35 71
M  V30 73 1 35 72
M  V30 74 1 35 73
M  V30 END BOND
M  V30 END CTAB
M  END
>  <catalyst_id>  (1) 
ZMEBAEJTAVXJBS_ZDQRBUBASA_NONE

>  <source_smiles>  (1) 
CC(=O)OC[C@H]1O[C@@H](NC(=S)N[C@H]2CCCC[C@@H]2N(C)C)[C@H](OC(C)=O)[C@@H](OC(C)=O)[C@@H]1OC(C)=O

>  <axial_configuration>  (1) 
none

>  <inchikey>  (1) 
ZMEBAEJTAVXJBS-ZDQRBUBASA-N

>  <build_source>  (1) 
smiles

>  <rdkit_version>  (1) 
2025.09.6

>  <random_seed>  (1) 
42

>  <generated_at>  (1) 
2026-05-19T12:33:08

$$$$
