catalyst311
     RDKit          3D

  0  0  0  0  0  0  0  0  0  0999 V3000
M  V30 BEGIN CTAB
M  V30 COUNTS 61 65 0 0 0
M  V30 BEGIN ATOM
M  V30 1 C 4.623555 -2.403919 -1.642166 0
M  V30 2 C 3.612011 -1.837650 -0.971180 0
M  V30 3 C 3.787473 -0.722152 0.032457 0 CFG=1
M  V30 4 C 2.955461 0.532403 -0.341570 0
M  V30 5 N 2.304815 1.149000 0.845223 0
M  V30 6 C 3.341313 1.338668 1.889696 0
M  V30 7 C 3.863700 -0.013401 2.409619 0
M  V30 8 C 3.386408 -1.137579 1.468887 0 CFG=1
M  V30 9 C 1.847435 -1.197450 1.565593 0
M  V30 10 C 1.260137 0.231037 1.399340 0 CFG=2
M  V30 11 C -0.107826 0.225716 0.627801 0 CFG=1
M  V30 12 O -0.937547 -0.784031 1.251899 0
M  V30 13 C -1.893621 -1.416702 0.509444 0
M  V30 14 C -2.432062 -2.554774 1.115697 0
M  V30 15 C -3.430892 -3.312017 0.485750 0
M  V30 16 C -4.012336 -4.524725 1.170554 0
M  V30 17 F -3.102278 -5.195893 1.929452 0
M  V30 18 F -4.514016 -5.440612 0.296102 0
M  V30 19 F -5.036676 -4.204104 2.006816 0
M  V30 20 C -3.901968 -2.895964 -0.768046 0
M  V30 21 C -3.374164 -1.753952 -1.391921 0
M  V30 22 C -3.902283 -1.292866 -2.730541 0
M  V30 23 F -2.946261 -0.713006 -3.507296 0
M  V30 24 F -4.897954 -0.374732 -2.605887 0
M  V30 25 F -4.419441 -2.309000 -3.476051 0
M  V30 26 C -2.373020 -1.015462 -0.736032 0
M  V30 27 C -0.801407 1.586396 0.720868 0
M  V30 28 C -1.453298 1.921294 1.918447 0
M  V30 29 C -2.083684 3.143399 2.022661 0
M  V30 30 N -2.113283 4.054405 1.033603 0
M  V30 31 C -1.489447 3.758552 -0.115647 0
M  V30 32 C -1.530115 4.712450 -1.124537 0
M  V30 33 C -0.920690 4.509921 -2.363115 0
M  V30 34 C -0.254225 3.320529 -2.590074 0
M  V30 35 O 0.359702 3.060965 -3.778307 0
M  V30 36 C -0.193122 2.344389 -1.601510 0
M  V30 37 C -0.808593 2.535268 -0.340629 0
M  V30 38 H 5.653447 -2.091297 -1.499293 0
M  V30 39 H 4.439132 -3.201881 -2.355478 0
M  V30 40 H 2.602376 -2.195748 -1.162001 0
M  V30 41 H 4.848556 -0.433660 0.049628 0
M  V30 42 H 2.204593 0.301658 -1.104454 0
M  V30 43 H 3.615336 1.275243 -0.808898 0
M  V30 44 H 4.168857 1.936440 1.486856 0
M  V30 45 H 2.932703 1.925900 2.721283 0
M  V30 46 H 3.495574 -0.195929 3.426488 0
M  V30 47 H 4.958659 0.005788 2.458557 0
M  V30 48 H 3.832202 -2.096891 1.753570 0
M  V30 49 H 1.556987 -1.594911 2.546270 0
M  V30 50 H 1.447503 -1.886113 0.813738 0
M  V30 51 H 1.023510 0.582246 2.415613 0
M  V30 52 H 0.085122 -0.079126 -0.404107 0
M  V30 53 H -2.063715 -2.855628 2.096559 0
M  V30 54 H -4.689998 -3.465582 -1.264107 0
M  V30 55 H -2.002069 -0.117631 -1.222586 0
M  V30 56 H -1.474656 1.236560 2.760706 0
M  V30 57 H -2.599575 3.431572 2.933941 0
M  V30 58 H -2.056501 5.646050 -0.937006 0
M  V30 59 H -0.980781 5.285177 -3.119470 0
M  V30 60 H 0.243333 3.827802 -4.363741 0
M  V30 61 H 0.347604 1.435562 -1.837464 0
M  V30 END ATOM
M  V30 BEGIN BOND
M  V30 1 2 1 2
M  V30 2 1 2 3
M  V30 3 1 3 4
M  V30 4 1 4 5
M  V30 5 1 5 6
M  V30 6 1 6 7
M  V30 7 1 7 8
M  V30 8 1 8 9
M  V30 9 1 9 10
M  V30 10 1 10 11
M  V30 11 1 11 12
M  V30 12 1 12 13
M  V30 13 2 13 14
M  V30 14 1 14 15
M  V30 15 1 15 16
M  V30 16 1 16 17
M  V30 17 1 16 18
M  V30 18 1 16 19
M  V30 19 2 15 20
M  V30 20 1 20 21
M  V30 21 1 21 22
M  V30 22 1 22 23
M  V30 23 1 22 24
M  V30 24 1 22 25
M  V30 25 2 21 26
M  V30 26 1 11 27
M  V30 27 2 27 28
M  V30 28 1 28 29
M  V30 29 2 29 30
M  V30 30 1 30 31
M  V30 31 2 31 32
M  V30 32 1 32 33
M  V30 33 2 33 34
M  V30 34 1 34 35
M  V30 35 1 34 36
M  V30 36 2 36 37
M  V30 37 1 8 3
M  V30 38 1 26 13
M  V30 39 1 37 27
M  V30 40 1 10 5
M  V30 41 1 37 31
M  V30 42 1 1 38
M  V30 43 1 1 39
M  V30 44 1 2 40
M  V30 45 1 3 41 CFG=1
M  V30 46 1 4 42
M  V30 47 1 4 43
M  V30 48 1 6 44
M  V30 49 1 6 45
M  V30 50 1 7 46
M  V30 51 1 7 47
M  V30 52 1 8 48 CFG=1
M  V30 53 1 9 49
M  V30 54 1 9 50
M  V30 55 1 10 51 CFG=1
M  V30 56 1 11 52 CFG=3
M  V30 57 1 14 53
M  V30 58 1 20 54
M  V30 59 1 26 55
M  V30 60 1 28 56
M  V30 61 1 29 57
M  V30 62 1 32 58
M  V30 63 1 33 59
M  V30 64 1 35 60
M  V30 65 1 36 61
M  V30 END BOND
M  V30 END CTAB
M  END
>  <catalyst_id>  (1) 
RQVMAZIYZLYDSQ_MKWKOJJYSA_NONE

>  <source_smiles>  (1) 
C=C[C@H]1CN2CC[C@H]1C[C@@H]2[C@@H](Oc1cc(C(F)(F)F)cc(C(F)(F)F)c1)c1ccnc2ccc(O)cc12

>  <axial_configuration>  (1) 
none

>  <inchikey>  (1) 
RQVMAZIYZLYDSQ-MKWKOJJYSA-N

>  <build_source>  (1) 
smiles

>  <rdkit_version>  (1) 
2025.09.6

>  <random_seed>  (1) 
42

>  <generated_at>  (1) 
2026-05-19T12:37:07

$$$$
