catalyst109
     RDKit          3D

  0  0  0  0  0  0  0  0  0  0999 V3000
M  V30 BEGIN CTAB
M  V30 COUNTS 92 96 0 0 0
M  V30 BEGIN ATOM
M  V30 1 C -8.265635 -3.032223 -0.982285 0
M  V30 2 C -7.147615 -2.396291 -0.608647 0
M  V30 3 C -6.035892 -3.040204 0.186254 0 CFG=1
M  V30 4 C -4.664916 -2.935559 -0.534781 0
M  V30 5 N -3.635283 -2.269411 0.309310 0
M  V30 6 C -3.466265 -3.066530 1.547909 0
M  V30 7 C -4.783061 -3.220376 2.323569 0
M  V30 8 C -5.893517 -2.433749 1.604625 0 CFG=1
M  V30 9 C -5.409703 -0.973774 1.531579 0
M  V30 10 C -4.146805 -0.891170 0.642109 0 CFG=1
M  V30 11 C -3.033830 0.024944 1.262302 0 CFG=1
M  V30 12 N -1.753204 -0.209646 0.600317 0
M  V30 13 C -0.578718 0.118395 1.225136 0
M  V30 14 O -0.502191 0.624422 2.334798 0
M  V30 15 N 0.492017 -0.182937 0.427225 0
M  V30 16 C 1.834982 0.212555 0.784004 0 CFG=1
M  V30 17 N 2.695480 -0.846680 0.323654 0
M  V30 18 C 3.792140 -1.269612 1.002678 0
M  V30 19 O 4.167138 -0.851022 2.086067 0
M  V30 20 O 4.419847 -2.218157 0.267298 0
M  V30 21 C 5.644816 -2.710745 0.821567 0
M  V30 22 C 6.800288 -1.926456 0.248994 0
M  V30 23 C 7.330446 -0.832533 0.947886 0
M  V30 24 C 8.379583 -0.069783 0.412063 0
M  V30 25 C 8.916189 1.123361 1.168349 0
M  V30 26 F 8.956514 0.926895 2.514992 0
M  V30 27 F 8.166060 2.241479 0.970193 0
M  V30 28 F 10.186665 1.456350 0.804503 0
M  V30 29 C 8.887164 -0.408848 -0.852812 0
M  V30 30 C 8.371210 -1.499690 -1.571713 0
M  V30 31 C 8.902500 -1.838371 -2.944595 0
M  V30 32 F 10.209847 -1.495261 -3.111204 0
M  V30 33 F 8.827426 -3.167859 -3.231909 0
M  V30 34 F 8.218018 -1.201642 -3.933856 0
M  V30 35 C 7.319963 -2.244266 -1.013626 0
M  V30 36 C 2.239291 1.615209 0.193577 0
M  V30 37 C 3.669035 1.996619 0.635637 0
M  V30 38 C 1.293759 2.722673 0.705332 0
M  V30 39 C 2.196438 1.621360 -1.348814 0
M  V30 40 C -3.413228 1.504887 1.244863 0
M  V30 41 C -3.682784 2.109855 2.481241 0
M  V30 42 C -4.050088 3.438795 2.512040 0
M  V30 43 N -4.174996 4.204480 1.412955 0
M  V30 44 C -3.896748 3.651082 0.223770 0
M  V30 45 C -4.003633 4.461872 -0.896834 0
M  V30 46 C -3.728269 3.996013 -2.185864 0
M  V30 47 C -3.331617 2.680533 -2.367468 0
M  V30 48 O -3.023055 2.086349 -3.559033 0
M  V30 49 C -3.114051 2.898534 -4.723408 0
M  V30 50 C -3.223285 1.848318 -1.250144 0
M  V30 51 C -3.504223 2.301386 0.065132 0
M  V30 52 H -9.030806 -2.517813 -1.556382 0
M  V30 53 H -8.448477 -4.071204 -0.726402 0
M  V30 54 H -7.023312 -1.354356 -0.898495 0
M  V30 55 H -6.266166 -4.109014 0.303014 0
M  V30 56 H -4.746590 -2.405213 -1.492475 0
M  V30 57 H -4.312338 -3.942019 -0.796751 0
M  V30 58 H -2.702014 -2.614662 2.190611 0
M  V30 59 H -3.071280 -4.057608 1.291059 0
M  V30 60 H -4.658301 -2.849153 3.347773 0
M  V30 61 H -5.056238 -4.279850 2.395566 0
M  V30 62 H -6.832697 -2.502589 2.164846 0
M  V30 63 H -5.208188 -0.614316 2.547935 0
M  V30 64 H -6.194826 -0.327828 1.122115 0
M  V30 65 H -4.447589 -0.441557 -0.312263 0
M  V30 66 H -2.886978 -0.289589 2.304816 0
M  V30 67 H -1.725351 -1.105181 0.125623 0
M  V30 68 H 0.272704 -0.252029 -0.552597 0
M  V30 69 H 1.906189 0.262735 1.877946 0
M  V30 70 H 2.534663 -1.268056 -0.575456 0
M  V30 71 H 5.736210 -3.764436 0.533223 0
M  V30 72 H 5.649597 -2.698855 1.918536 0
M  V30 73 H 6.912187 -0.561068 1.919395 0
M  V30 74 H 9.693039 0.186808 -1.285481 0
M  V30 75 H 6.895974 -3.078094 -1.574256 0
M  V30 76 H 4.420974 1.326273 0.206783 0
M  V30 77 H 3.926748 3.011037 0.308907 0
M  V30 78 H 3.765473 1.967999 1.726549 0
M  V30 79 H 1.261833 2.739625 1.800217 0
M  V30 80 H 0.272661 2.591845 0.332678 0
M  V30 81 H 1.627078 3.712349 0.371082 0
M  V30 82 H 1.188758 1.419593 -1.726783 0
M  V30 83 H 2.500612 2.597405 -1.744986 0
M  V30 84 H 2.873348 0.872961 -1.774489 0
M  V30 85 H -3.593516 1.560329 3.413314 0
M  V30 86 H -4.259454 3.939935 3.452696 0
M  V30 87 H -4.307880 5.497918 -0.761518 0
M  V30 88 H -3.831128 4.690596 -3.012161 0
M  V30 89 H -2.413102 3.738507 -4.674796 0
M  V30 90 H -2.835465 2.281797 -5.583289 0
M  V30 91 H -4.139821 3.247295 -4.882046 0
M  V30 92 H -2.900730 0.825911 -1.425067 0
M  V30 END ATOM
M  V30 BEGIN BOND
M  V30 1 2 1 2
M  V30 2 1 2 3
M  V30 3 1 3 4
M  V30 4 1 4 5
M  V30 5 1 5 6
M  V30 6 1 6 7
M  V30 7 1 7 8
M  V30 8 1 8 9
M  V30 9 1 9 10
M  V30 10 1 10 11
M  V30 11 1 11 12
M  V30 12 1 12 13
M  V30 13 2 13 14
M  V30 14 1 13 15
M  V30 15 1 15 16
M  V30 16 1 16 17
M  V30 17 1 17 18
M  V30 18 2 18 19
M  V30 19 1 18 20
M  V30 20 1 20 21
M  V30 21 1 21 22
M  V30 22 2 22 23
M  V30 23 1 23 24
M  V30 24 1 24 25
M  V30 25 1 25 26
M  V30 26 1 25 27
M  V30 27 1 25 28
M  V30 28 2 24 29
M  V30 29 1 29 30
M  V30 30 1 30 31
M  V30 31 1 31 32
M  V30 32 1 31 33
M  V30 33 1 31 34
M  V30 34 2 30 35
M  V30 35 1 16 36
M  V30 36 1 36 37
M  V30 37 1 36 38
M  V30 38 1 36 39
M  V30 39 1 11 40
M  V30 40 2 40 41
M  V30 41 1 41 42
M  V30 42 2 42 43
M  V30 43 1 43 44
M  V30 44 2 44 45
M  V30 45 1 45 46
M  V30 46 2 46 47
M  V30 47 1 47 48
M  V30 48 1 48 49
M  V30 49 1 47 50
M  V30 50 2 50 51
M  V30 51 1 8 3
M  V30 52 1 35 22
M  V30 53 1 51 40
M  V30 54 1 10 5
M  V30 55 1 51 44
M  V30 56 1 1 52
M  V30 57 1 1 53
M  V30 58 1 2 54
M  V30 59 1 3 55 CFG=1
M  V30 60 1 4 56
M  V30 61 1 4 57
M  V30 62 1 6 58
M  V30 63 1 6 59
M  V30 64 1 7 60
M  V30 65 1 7 61
M  V30 66 1 8 62 CFG=1
M  V30 67 1 9 63
M  V30 68 1 9 64
M  V30 69 1 10 65 CFG=3
M  V30 70 1 11 66 CFG=1
M  V30 71 1 12 67
M  V30 72 1 15 68
M  V30 73 1 16 69 CFG=1
M  V30 74 1 17 70
M  V30 75 1 21 71
M  V30 76 1 21 72
M  V30 77 1 23 73
M  V30 78 1 29 74
M  V30 79 1 35 75
M  V30 80 1 37 76
M  V30 81 1 37 77
M  V30 82 1 37 78
M  V30 83 1 38 79
M  V30 84 1 38 80
M  V30 85 1 38 81
M  V30 86 1 39 82
M  V30 87 1 39 83
M  V30 88 1 39 84
M  V30 89 1 41 85
M  V30 90 1 42 86
M  V30 91 1 45 87
M  V30 92 1 46 88
M  V30 93 1 49 89
M  V30 94 1 49 90
M  V30 95 1 49 91
M  V30 96 1 50 92
M  V30 END BOND
M  V30 END CTAB
M  END
>  <catalyst_id>  (1) 
IISPVYHEGLQJND_BHBWKYTLSA_NONE

>  <source_smiles>  (1) 
C=C[C@H]1CN2CC[C@H]1C[C@H]2[C@@H](NC(=O)N[C@@H](NC(=O)OCc1cc(C(F)(F)F)cc(C(F)(F)F)c1)C(C)(C)C)c1ccnc2ccc(OC)cc12

>  <axial_configuration>  (1) 
none

>  <inchikey>  (1) 
IISPVYHEGLQJND-BHBWKYTLSA-N

>  <build_source>  (1) 
smiles

>  <rdkit_version>  (1) 
2025.09.6

>  <random_seed>  (1) 
42

>  <generated_at>  (1) 
2026-05-19T12:34:34

$$$$
