catalyst411
     RDKit          3D

  0  0  0  0  0  0  0  0  0  0999 V3000
M  V30 BEGIN CTAB
M  V30 COUNTS 37 37 0 0 0
M  V30 BEGIN ATOM
M  V30 1 C 4.834148 2.063787 0.824592 0
M  V30 2 C 4.401689 0.890538 -0.032826 0
M  V30 3 O 3.044044 0.573457 0.295374 0
M  V30 4 C 2.523307 -0.467660 -0.410090 0
M  V30 5 O 3.120540 -1.108966 -1.264035 0
M  V30 6 C 1.079663 -0.699881 -0.008407 0 CFG=2
M  V30 7 C 0.698608 -2.171795 -0.196310 0
M  V30 8 C -0.764230 -2.416889 0.159307 0
M  V30 9 C -1.704993 -1.520477 -0.659862 0 CFG=1
M  V30 10 N -3.085699 -1.701799 -0.169872 0
M  V30 11 C -1.313475 -0.020411 -0.570913 0 CFG=1
M  V30 12 N -1.661832 0.476919 0.794346 0
M  V30 13 S -2.474923 1.973431 0.893327 0
M  V30 14 O -2.538729 2.263397 2.314858 0
M  V30 15 O -1.766818 2.876517 0.002892 0
M  V30 16 C -4.199820 1.633082 0.241699 0
M  V30 17 F -4.866005 0.734834 1.021692 0
M  V30 18 F -4.177967 1.107796 -1.019176 0
M  V30 19 F -4.963804 2.758779 0.187652 0
M  V30 20 C 0.173644 0.213296 -0.837796 0
M  V30 21 H 5.868889 2.344268 0.608967 0
M  V30 22 H 4.748866 1.816308 1.887881 0
M  V30 23 H 4.188287 2.929990 0.646575 0
M  V30 24 H 5.042855 0.025884 0.171860 0
M  V30 25 H 4.472468 1.160637 -1.092402 0
M  V30 26 H 0.985234 -0.459798 1.058918 0
M  V30 27 H 0.873874 -2.482873 -1.234416 0
M  V30 28 H 1.339268 -2.805810 0.428814 0
M  V30 29 H -0.903346 -2.243539 1.234485 0
M  V30 30 H -1.005206 -3.472329 -0.019317 0
M  V30 31 H -1.658126 -1.836833 -1.709497 0
M  V30 32 H -3.737529 -1.327285 -0.864488 0
M  V30 33 H -3.297480 -2.702079 -0.129628 0
M  V30 34 H -1.893019 0.528848 -1.321550 0
M  V30 35 H -2.185551 -0.236836 1.320757 0
M  V30 36 H 0.368954 0.041360 -1.905125 0
M  V30 37 H 0.434216 1.262132 -0.648285 0
M  V30 END ATOM
M  V30 BEGIN BOND
M  V30 1 1 1 2
M  V30 2 1 2 3
M  V30 3 1 3 4
M  V30 4 2 4 5
M  V30 5 1 4 6
M  V30 6 1 6 7
M  V30 7 1 7 8
M  V30 8 1 8 9
M  V30 9 1 9 10
M  V30 10 1 9 11
M  V30 11 1 11 12
M  V30 12 1 12 13
M  V30 13 2 13 14
M  V30 14 2 13 15
M  V30 15 1 13 16
M  V30 16 1 16 17
M  V30 17 1 16 18
M  V30 18 1 16 19
M  V30 19 1 11 20
M  V30 20 1 20 6
M  V30 21 1 1 21
M  V30 22 1 1 22
M  V30 23 1 1 23
M  V30 24 1 2 24
M  V30 25 1 2 25
M  V30 26 1 6 26 CFG=1
M  V30 27 1 7 27
M  V30 28 1 7 28
M  V30 29 1 8 29
M  V30 30 1 8 30
M  V30 31 1 9 31 CFG=3
M  V30 32 1 10 32
M  V30 33 1 10 33
M  V30 34 1 11 34 CFG=3
M  V30 35 1 12 35
M  V30 36 1 20 36
M  V30 37 1 20 37
M  V30 END BOND
M  V30 END CTAB
M  END
>  <catalyst_id>  (1) 
YBEHSJXABXGRSU_PRJMDXOYSA_NONE

>  <source_smiles>  (1) 
CCOC(=O)[C@@H]1CC[C@@H](N)[C@@H](NS(=O)(=O)C(F)(F)F)C1

>  <axial_configuration>  (1) 
none

>  <inchikey>  (1) 
YBEHSJXABXGRSU-PRJMDXOYSA-N

>  <build_source>  (1) 
smiles

>  <rdkit_version>  (1) 
2025.09.6

>  <random_seed>  (1) 
42

>  <generated_at>  (1) 
2026-05-19T12:31:59

$$$$
