catalyst371
     RDKit          3D

  0  0  0  0  0  0  0  0  0  0999 V3000
M  V30 BEGIN CTAB
M  V30 COUNTS 69 73 0 0 0
M  V30 BEGIN ATOM
M  V30 1 C -6.226863 3.387550 0.093446 0
M  V30 2 C -5.103459 2.660639 0.034220 0
M  V30 3 C -3.812011 3.151327 -0.577314 0 CFG=1
M  V30 4 C -2.628981 3.089429 0.426208 0
M  V30 5 N -1.496470 2.268846 -0.085767 0
M  V30 6 C -1.017988 2.881786 -1.349708 0
M  V30 7 C -2.132533 2.999128 -2.399982 0
M  V30 8 C -3.419915 2.360279 -1.849945 0 CFG=1
M  V30 9 C -3.063066 0.902854 -1.504637 0
M  V30 10 C -2.030736 0.882182 -0.353778 0 CFG=1
M  V30 11 C -0.880264 -0.161983 -0.583409 0 CFG=1
M  V30 12 N 0.248531 0.137531 0.305624 0
M  V30 13 C 1.516143 -0.316169 0.005713 0
M  V30 14 O 1.762870 -1.035138 -0.952096 0
M  V30 15 N 2.418940 0.149750 0.937836 0
M  V30 16 C 3.813974 -0.033110 0.953030 0
M  V30 17 C 4.504190 0.400522 2.091201 0
M  V30 18 C 5.897469 0.254284 2.196937 0
M  V30 19 C 6.624793 0.740694 3.427028 0
M  V30 20 F 5.863652 0.678093 4.554943 0
M  V30 21 F 7.752307 0.027592 3.697955 0
M  V30 22 F 7.017889 2.038389 3.312352 0
M  V30 23 C 6.602119 -0.316884 1.127111 0
M  V30 24 C 5.930675 -0.743286 -0.029063 0
M  V30 25 C 6.682458 -1.377270 -1.175564 0
M  V30 26 F 8.011297 -1.072688 -1.171771 0
M  V30 27 F 6.220242 -0.991231 -2.396429 0
M  V30 28 F 6.612584 -2.735869 -1.154767 0
M  V30 29 C 4.533910 -0.600813 -0.099813 0
M  V30 30 C -1.368910 -1.602537 -0.435804 0
M  V30 31 C -1.480773 -2.390303 -1.592087 0
M  V30 32 O -1.184315 -1.854447 -2.816770 0
M  V30 33 C -0.109274 -2.556146 -3.446827 0
M  V30 34 C -1.967058 -3.682327 -1.482199 0
M  V30 35 N -2.318188 -4.259979 -0.317074 0
M  V30 36 C -2.194266 -3.534323 0.802017 0
M  V30 37 C -2.556049 -4.148717 1.992965 0
M  V30 38 C -2.478938 -3.491364 3.219914 0
M  V30 39 C -2.027826 -2.183320 3.262725 0
M  V30 40 C -1.657627 -1.544288 2.078488 0
M  V30 41 C -1.728848 -2.193930 0.817798 0
M  V30 42 H -7.126696 2.982011 0.546847 0
M  V30 43 H -6.281342 4.394676 -0.308250 0
M  V30 44 H -5.114034 1.656823 0.455325 0
M  V30 45 H -3.943003 4.203881 -0.867218 0
M  V30 46 H -2.943374 2.701543 1.403917 0
M  V30 47 H -2.267108 4.106563 0.627419 0
M  V30 48 H -0.177519 2.307733 -1.756529 0
M  V30 49 H -0.605791 3.876299 -1.136790 0
M  V30 50 H -1.826387 2.498116 -3.326154 0
M  V30 51 H -2.308739 4.052957 -2.646593 0
M  V30 52 H -4.214705 2.396041 -2.603378 0
M  V30 53 H -2.672106 0.412674 -2.403578 0
M  V30 54 H -3.959582 0.345698 -1.209431 0
M  V30 55 H -2.563948 0.584291 0.557858 0
M  V30 56 H -0.485424 0.001163 -1.593222 0
M  V30 57 H 0.222940 1.104399 0.610445 0
M  V30 58 H 1.994436 0.544109 1.764504 0
M  V30 59 H 3.959462 0.853596 2.918757 0
M  V30 60 H 7.685675 -0.430133 1.194223 0
M  V30 61 H 4.030213 -0.939335 -1.002908 0
M  V30 62 H 0.313487 -1.899385 -4.212952 0
M  V30 63 H 0.688732 -2.811811 -2.740871 0
M  V30 64 H -0.482513 -3.457771 -3.942759 0
M  V30 65 H -2.108248 -4.307578 -2.358169 0
M  V30 66 H -2.910708 -5.176936 1.963409 0
M  V30 67 H -2.769637 -4.005536 4.131779 0
M  V30 68 H -1.959423 -1.658090 4.211693 0
M  V30 69 H -1.304347 -0.520749 2.159920 0
M  V30 END ATOM
M  V30 BEGIN BOND
M  V30 1 2 1 2
M  V30 2 1 2 3
M  V30 3 1 3 4
M  V30 4 1 4 5
M  V30 5 1 5 6
M  V30 6 1 6 7
M  V30 7 1 7 8
M  V30 8 1 8 9
M  V30 9 1 9 10
M  V30 10 1 10 11
M  V30 11 1 11 12
M  V30 12 1 12 13
M  V30 13 2 13 14
M  V30 14 1 13 15
M  V30 15 1 15 16
M  V30 16 2 16 17
M  V30 17 1 17 18
M  V30 18 1 18 19
M  V30 19 1 19 20
M  V30 20 1 19 21
M  V30 21 1 19 22
M  V30 22 2 18 23
M  V30 23 1 23 24
M  V30 24 1 24 25
M  V30 25 1 25 26
M  V30 26 1 25 27
M  V30 27 1 25 28
M  V30 28 2 24 29
M  V30 29 1 11 30
M  V30 30 2 30 31
M  V30 31 1 31 32
M  V30 32 1 32 33
M  V30 33 1 31 34
M  V30 34 2 34 35
M  V30 35 1 35 36
M  V30 36 2 36 37
M  V30 37 1 37 38
M  V30 38 2 38 39
M  V30 39 1 39 40
M  V30 40 2 40 41
M  V30 41 1 8 3
M  V30 42 1 29 16
M  V30 43 1 41 30
M  V30 44 1 10 5
M  V30 45 1 41 36
M  V30 46 1 1 42
M  V30 47 1 1 43
M  V30 48 1 2 44
M  V30 49 1 3 45 CFG=3
M  V30 50 1 4 46
M  V30 51 1 4 47
M  V30 52 1 6 48
M  V30 53 1 6 49
M  V30 54 1 7 50
M  V30 55 1 7 51
M  V30 56 1 8 52 CFG=3
M  V30 57 1 9 53
M  V30 58 1 9 54
M  V30 59 1 10 55 CFG=1
M  V30 60 1 11 56 CFG=3
M  V30 61 1 12 57
M  V30 62 1 15 58
M  V30 63 1 17 59
M  V30 64 1 23 60
M  V30 65 1 29 61
M  V30 66 1 33 62
M  V30 67 1 33 63
M  V30 68 1 33 64
M  V30 69 1 34 65
M  V30 70 1 37 66
M  V30 71 1 38 67
M  V30 72 1 39 68
M  V30 73 1 40 69
M  V30 END BOND
M  V30 END CTAB
M  END
>  <catalyst_id>  (1) 
VVOFTWSSKFXAQQ_IGEKPOMNSA_NONE

>  <source_smiles>  (1) 
C=C[C@H]1CN2CC[C@H]1C[C@H]2[C@@H](NC(=O)Nc1cc(C(F)(F)F)cc(C(F)(F)F)c1)c1c(OC)cnc2ccccc12

>  <axial_configuration>  (1) 
none

>  <inchikey>  (1) 
VVOFTWSSKFXAQQ-IGEKPOMNSA-N

>  <build_source>  (1) 
smiles

>  <rdkit_version>  (1) 
2025.09.6

>  <random_seed>  (1) 
42

>  <generated_at>  (1) 
2026-05-19T12:34:39

$$$$
