catalyst238
     RDKit          3D

  0  0  0  0  0  0  0  0  0  0999 V3000
M  V30 BEGIN CTAB
M  V30 COUNTS 29 30 0 0 0
M  V30 BEGIN ATOM
M  V30 1 N -2.832800 2.045910 -0.294647 0
M  V30 2 C -1.933239 0.927019 -0.680595 0 CFG=1
M  V30 3 C -1.664999 0.027058 0.537496 0
M  V30 4 C -0.360524 -0.746766 0.422512 0
M  V30 5 C -0.429609 -2.093383 0.024753 0
M  V30 6 C 0.724042 -2.854777 -0.121452 0
M  V30 7 C 1.967443 -2.282705 0.127232 0
M  V30 8 C 2.076387 -0.943411 0.527014 0
M  V30 9 C 3.343075 -0.387454 0.772140 0
M  V30 10 C 3.480205 0.939882 1.172642 0
M  V30 11 C 2.350191 1.728689 1.335024 0
M  V30 12 C 1.083403 1.190044 1.094632 0
M  V30 13 C 0.908655 -0.152533 0.683345 0
M  V30 14 C -2.582314 0.149025 -1.836426 0
M  V30 15 O -2.746832 -1.054391 -1.944751 0
M  V30 16 O -2.983058 0.974202 -2.837205 0
M  V30 17 H -2.312425 2.707374 0.278560 0
M  V30 18 H -3.079424 2.545613 -1.153721 0
M  V30 19 H -1.001557 1.353719 -1.070305 0
M  V30 20 H -1.626106 0.616785 1.462663 0
M  V30 21 H -2.499360 -0.670618 0.692294 0
M  V30 22 H -1.393012 -2.557287 -0.183074 0
M  V30 23 H 0.653419 -3.893596 -0.432705 0
M  V30 24 H 2.857564 -2.896145 0.005649 0
M  V30 25 H 4.240264 -0.991441 0.652859 0
M  V30 26 H 4.467660 1.353015 1.359578 0
M  V30 27 H 2.449470 2.763525 1.652001 0
M  V30 28 H 0.227808 1.843200 1.241120 0
M  V30 29 H -3.384327 0.359447 -3.486635 0
M  V30 END ATOM
M  V30 BEGIN BOND
M  V30 1 1 1 2
M  V30 2 1 2 3
M  V30 3 1 3 4
M  V30 4 2 4 5
M  V30 5 1 5 6
M  V30 6 2 6 7
M  V30 7 1 7 8
M  V30 8 2 8 9
M  V30 9 1 9 10
M  V30 10 2 10 11
M  V30 11 1 11 12
M  V30 12 2 12 13
M  V30 13 1 2 14
M  V30 14 2 14 15
M  V30 15 1 14 16
M  V30 16 1 13 4
M  V30 17 1 13 8
M  V30 18 1 1 17
M  V30 19 1 1 18
M  V30 20 1 2 19 CFG=3
M  V30 21 1 3 20
M  V30 22 1 3 21
M  V30 23 1 5 22
M  V30 24 1 6 23
M  V30 25 1 7 24
M  V30 26 1 9 25
M  V30 27 1 10 26
M  V30 28 1 11 27
M  V30 29 1 12 28
M  V30 30 1 16 29
M  V30 END BOND
M  V30 END CTAB
M  END
>  <catalyst_id>  (1) 
OFYAYGJCPXRNBL_LBPRGKRZSA_NONE

>  <source_smiles>  (1) 
N[C@@H](Cc1cccc2ccccc12)C(=O)O

>  <axial_configuration>  (1) 
none

>  <inchikey>  (1) 
OFYAYGJCPXRNBL-LBPRGKRZSA-N

>  <build_source>  (1) 
smiles

>  <rdkit_version>  (1) 
2025.09.6

>  <random_seed>  (1) 
42

>  <generated_at>  (1) 
2026-05-19T12:29:59

$$$$
