catalyst40
     RDKit          3D

  0  0  0  0  0  0  0  0  0  0999 V3000
M  V30 BEGIN CTAB
M  V30 COUNTS 110 116 0 0 0
M  V30 BEGIN ATOM
M  V30 1 C 4.423464 2.242165 4.299427 0
M  V30 2 C 5.325511 1.838917 3.129754 0
M  V30 3 C 6.405221 2.895639 2.883472 0
M  V30 4 C 4.520761 1.560622 1.872228 0
M  V30 5 C 3.740296 2.549181 1.265385 0
M  V30 6 C 2.991912 2.300096 0.097345 0
M  V30 7 C 2.200153 3.451175 -0.532405 0
M  V30 8 C 1.434651 4.308744 0.486043 0
M  V30 9 C 3.128985 4.336920 -1.369709 0
M  V30 10 C 3.047739 1.005830 -0.497027 0
M  V30 11 C 2.314937 0.726870 -1.744428 0
M  V30 12 C 2.942080 0.875899 -2.984730 0
M  V30 13 C 2.234557 0.734134 -4.189855 0
M  V30 14 C 2.868439 1.059195 -5.400559 0
M  V30 15 C 2.167363 1.053590 -6.603781 0
M  V30 16 C 0.814793 0.748726 -6.605297 0
M  V30 17 C 0.179302 0.400588 -5.410396 0
M  V30 18 C 0.877113 0.315738 -4.181802 0
M  V30 19 C 0.304116 -0.079506 -2.946844 0
M  V30 20 C 0.998082 0.276389 -1.755100 0
M  V30 21 P -0.108850 0.181545 -0.392829 0
M  V30 22 O -0.407613 1.430567 0.381284 0
M  V30 23 O 0.432370 -0.973463 0.595648 0
M  V30 24 C -1.424320 -0.551751 -1.307437 0
M  V30 25 C -2.653418 -0.978797 -0.811859 0
M  V30 26 C -3.037734 -0.803560 0.600158 0
M  V30 27 C -2.844965 -1.867610 1.532026 0
M  V30 28 C -2.259025 -3.223099 1.117681 0
M  V30 29 C -1.196811 -3.756799 2.090569 0
M  V30 30 C -3.375858 -4.258013 0.944599 0
M  V30 31 C -3.254167 -1.691135 2.868652 0
M  V30 32 C -3.831234 -0.498618 3.314338 0
M  V30 33 C -4.275008 -0.314970 4.755509 0
M  V30 34 C -5.410772 -1.275555 5.117079 0
M  V30 35 C -3.103996 -0.460385 5.731526 0
M  V30 36 C -4.014644 0.536471 2.392635 0
M  V30 37 C -3.625332 0.415199 1.043439 0
M  V30 38 C -3.902398 1.579391 0.086032 0
M  V30 39 C -5.363986 1.550026 -0.373169 0
M  V30 40 C -3.558269 2.958513 0.667598 0
M  V30 41 C -3.504030 -1.635086 -1.705523 0
M  V30 42 C -3.079829 -1.995098 -2.995054 0
M  V30 43 C -3.920392 -2.788082 -3.793549 0
M  V30 44 C -3.488522 -3.284990 -5.020579 0
M  V30 45 C -2.197470 -3.019101 -5.448343 0
M  V30 46 C -1.360624 -2.212832 -4.672429 0
M  V30 47 C -1.791668 -1.617255 -3.462375 0
M  V30 48 C -1.011314 -0.746946 -2.656494 0
M  V30 49 C 3.825587 -0.014139 0.122211 0
M  V30 50 C 3.924727 -1.428048 -0.457628 0
M  V30 51 C 3.690285 -2.525766 0.588781 0
M  V30 52 C 5.274635 -1.630919 -1.152737 0
M  V30 53 C 4.554517 0.291086 1.289388 0
M  V30 54 H 5.010771 2.357994 5.216535 0
M  V30 55 H 3.909082 3.190472 4.113910 0
M  V30 56 H 3.660117 1.479139 4.484495 0
M  V30 57 H 5.840721 0.915858 3.426813 0
M  V30 58 H 7.058957 2.600660 2.055177 0
M  V30 59 H 7.029766 3.022903 3.774575 0
M  V30 60 H 5.974861 3.872397 2.637681 0
M  V30 61 H 3.726259 3.542794 1.706999 0
M  V30 62 H 1.434287 3.046379 -1.201765 0
M  V30 63 H 0.845136 3.688784 1.168478 0
M  V30 64 H 0.745701 4.985212 -0.031664 0
M  V30 65 H 2.102197 4.931994 1.089652 0
M  V30 66 H 2.560813 5.129332 -1.869566 0
M  V30 67 H 3.897065 4.814196 -0.750494 0
M  V30 68 H 3.643019 3.756751 -2.143338 0
M  V30 69 H 3.982177 1.201603 -3.004309 0
M  V30 70 H 3.916448 1.354037 -5.411475 0
M  V30 71 H 2.669492 1.323443 -7.529085 0
M  V30 72 H 0.245705 0.790083 -7.530383 0
M  V30 73 H -0.894014 0.228461 -5.447588 0
M  V30 74 H -0.044037 -0.926081 1.447959 0
M  V30 75 H -1.743386 -3.123865 0.156684 0
M  V30 76 H -0.425420 -3.006628 2.291420 0
M  V30 77 H -0.702305 -4.638291 1.665313 0
M  V30 78 H -1.627077 -4.061897 3.050443 0
M  V30 79 H -2.968018 -5.208872 0.583468 0
M  V30 80 H -4.125405 -3.920069 0.221396 0
M  V30 81 H -3.895358 -4.454662 1.889690 0
M  V30 82 H -3.140593 -2.509100 3.577333 0
M  V30 83 H -4.664694 0.705020 4.875239 0
M  V30 84 H -5.773427 -1.077715 6.131576 0
M  V30 85 H -6.256563 -1.158492 4.429471 0
M  V30 86 H -5.090496 -2.323074 5.076355 0
M  V30 87 H -3.427276 -0.243324 6.755354 0
M  V30 88 H -2.685260 -1.472753 5.723584 0
M  V30 89 H -2.296634 0.236750 5.480479 0
M  V30 90 H -4.486871 1.455825 2.733332 0
M  V30 91 H -3.273600 1.480104 -0.804700 0
M  V30 92 H -5.611719 0.595093 -0.849389 0
M  V30 93 H -5.557204 2.345810 -1.100933 0
M  V30 94 H -6.053595 1.689517 0.466888 0
M  V30 95 H -4.254315 3.263088 1.456868 0
M  V30 96 H -3.608306 3.723013 -0.116749 0
M  V30 97 H -2.545756 2.973611 1.084920 0
M  V30 98 H -4.484921 -1.952697 -1.351744 0
M  V30 99 H -4.917460 -3.055542 -3.447546 0
M  V30 100 H -4.146090 -3.909658 -5.618729 0
M  V30 101 H -1.830000 -3.444698 -6.378753 0
M  V30 102 H -0.336889 -2.086834 -5.015812 0
M  V30 103 H 3.145036 -1.578303 -1.210854 0
M  V30 104 H 2.754611 -2.359972 1.132834 0
M  V30 105 H 3.625316 -3.505739 0.102617 0
M  V30 106 H 4.500933 -2.582591 1.322591 0
M  V30 107 H 5.321065 -2.618741 -1.624411 0
M  V30 108 H 6.109718 -1.557504 -0.447601 0
M  V30 109 H 5.433228 -0.879773 -1.933953 0
M  V30 110 H 5.171793 -0.476867 1.750619 0
M  V30 END ATOM
M  V30 BEGIN BOND
M  V30 1 1 1 2
M  V30 2 1 2 3
M  V30 3 1 2 4
M  V30 4 2 4 5
M  V30 5 1 5 6
M  V30 6 1 6 7
M  V30 7 1 7 8
M  V30 8 1 7 9
M  V30 9 2 6 10
M  V30 10 1 10 11
M  V30 11 2 11 12
M  V30 12 1 12 13
M  V30 13 2 13 14
M  V30 14 1 14 15
M  V30 15 2 15 16
M  V30 16 1 16 17
M  V30 17 2 17 18
M  V30 18 1 18 19
M  V30 19 2 19 20
M  V30 20 1 20 21
M  V30 21 2 21 22
M  V30 22 1 21 23
M  V30 23 1 21 24
M  V30 24 2 24 25
M  V30 25 1 25 26
M  V30 26 2 26 27
M  V30 27 1 27 28
M  V30 28 1 28 29
M  V30 29 1 28 30
M  V30 30 1 27 31
M  V30 31 2 31 32
M  V30 32 1 32 33
M  V30 33 1 33 34
M  V30 34 1 33 35
M  V30 35 1 32 36
M  V30 36 2 36 37
M  V30 37 1 37 38
M  V30 38 1 38 39
M  V30 39 1 38 40
M  V30 40 1 25 41
M  V30 41 2 41 42
M  V30 42 1 42 43
M  V30 43 2 43 44
M  V30 44 1 44 45
M  V30 45 2 45 46
M  V30 46 1 46 47
M  V30 47 2 47 48
M  V30 48 1 10 49
M  V30 49 1 49 50
M  V30 50 1 50 51
M  V30 51 1 50 52
M  V30 52 2 49 53
M  V30 53 1 53 4
M  V30 54 1 20 11
M  V30 55 1 48 24
M  V30 56 1 18 13
M  V30 57 1 48 19
M  V30 58 1 37 26
M  V30 59 1 47 42
M  V30 60 1 1 54
M  V30 61 1 1 55
M  V30 62 1 1 56
M  V30 63 1 2 57
M  V30 64 1 3 58
M  V30 65 1 3 59
M  V30 66 1 3 60
M  V30 67 1 5 61
M  V30 68 1 7 62
M  V30 69 1 8 63
M  V30 70 1 8 64
M  V30 71 1 8 65
M  V30 72 1 9 66
M  V30 73 1 9 67
M  V30 74 1 9 68
M  V30 75 1 12 69
M  V30 76 1 14 70
M  V30 77 1 15 71
M  V30 78 1 16 72
M  V30 79 1 17 73
M  V30 80 1 23 74
M  V30 81 1 28 75
M  V30 82 1 29 76
M  V30 83 1 29 77
M  V30 84 1 29 78
M  V30 85 1 30 79
M  V30 86 1 30 80
M  V30 87 1 30 81
M  V30 88 1 31 82
M  V30 89 1 33 83
M  V30 90 1 34 84
M  V30 91 1 34 85
M  V30 92 1 34 86
M  V30 93 1 35 87
M  V30 94 1 35 88
M  V30 95 1 35 89
M  V30 96 1 36 90
M  V30 97 1 38 91
M  V30 98 1 39 92
M  V30 99 1 39 93
M  V30 100 1 39 94
M  V30 101 1 40 95
M  V30 102 1 40 96
M  V30 103 1 40 97
M  V30 104 1 41 98
M  V30 105 1 43 99
M  V30 106 1 44 100
M  V30 107 1 45 101
M  V30 108 1 46 102
M  V30 109 1 50 103
M  V30 110 1 51 104
M  V30 111 1 51 105
M  V30 112 1 51 106
M  V30 113 1 52 107
M  V30 114 1 52 108
M  V30 115 1 52 109
M  V30 116 1 53 110
M  V30 END BOND
M  V30 END CTAB
M  END
>  <catalyst_id>  (1) 
DDSLMUIYQLJNGD_UHFFFAOYSA_R

>  <source_smiles>  (1) 
CC(C)c1cc(C(C)C)c(-c2cc3ccccc3c3c2P(=O)(O)c2c(-c4c(C(C)C)cc(C(C)C)cc4C(C)C)cc4ccccc4c2-3)c(C(C)C)c1

>  <axial_configuration>  (1) 
R

>  <inchikey>  (1) 
DDSLMUIYQLJNGD-UHFFFAOYSA-N

>  <build_source>  (1) 
smiles+axial_free

>  <final_biaryl_angle_deg>  (1) 
92.62

>  <rdkit_version>  (1) 
2025.09.6

>  <random_seed>  (1) 
42

>  <generated_at>  (1) 
2026-05-19T12:30:05

$$$$
