catalyst161
     RDKit          3D

  0  0  0  0  0  0  0  0  0  0999 V3000
M  V30 BEGIN CTAB
M  V30 COUNTS 152 158 0 0 0
M  V30 BEGIN ATOM
M  V30 1 C -7.362261 -4.087709 0.243058 0
M  V30 2 C -6.165649 -3.248596 -0.214074 0
M  V30 3 C -6.431632 -2.726727 -1.630453 0
M  V30 4 N -5.703909 -2.164481 0.694397 0
M  V30 5 C -4.975138 -2.689752 1.870505 0
M  V30 6 C -3.671939 -3.438624 1.616088 0
M  V30 7 C -2.852775 -3.203262 0.497866 0
M  V30 8 C -1.642525 -3.879308 0.325040 0
M  V30 9 C -1.214922 -4.764718 1.321269 0
M  V30 10 C -1.996174 -5.007486 2.460535 0
M  V30 11 C -1.538976 -5.984864 3.513877 0
M  V30 12 F -0.191881 -6.189296 3.507727 0
M  V30 13 F -1.845954 -5.581885 4.778300 0
M  V30 14 F -2.104927 -7.213032 3.363249 0
M  V30 15 C -3.225099 -4.345706 2.591460 0
M  V30 16 N -0.767512 -3.682480 -0.764155 0
M  V30 17 C -0.977788 -3.202559 -2.030550 0
M  V30 18 S -2.426491 -3.086025 -2.859628 0
M  V30 19 N 0.150534 -2.892927 -2.749698 0
M  V30 20 C 1.469485 -2.591303 -2.349156 0
M  V30 21 C 1.833154 -2.232537 -1.045515 0
M  V30 22 C 3.160200 -1.910945 -0.717896 0
M  V30 23 C 4.119712 -1.964407 -1.736033 0
M  V30 24 C 3.785034 -2.318543 -3.050057 0
M  V30 25 C 4.844069 -2.368650 -4.123277 0
M  V30 26 F 5.064362 -1.168155 -4.723414 0
M  V30 27 F 6.055294 -2.776420 -3.648307 0
M  V30 28 F 4.539131 -3.240786 -5.127468 0
M  V30 29 C 2.447765 -2.612458 -3.347717 0
M  V30 30 C 3.600719 -1.590572 0.700711 0
M  V30 31 N 3.676224 -0.148838 1.038847 0
M  V30 32 C 2.563320 0.311705 1.931077 0
M  V30 33 C 2.465884 1.848554 2.001354 0
M  V30 34 C 1.159248 -0.174288 1.536218 0
M  V30 35 C 5.023744 0.206443 1.617550 0 CFG=1
M  V30 36 C 5.439144 -0.681452 2.829088 0
M  V30 37 C 6.799163 -1.339340 2.664690 0
M  V30 38 C 7.885921 -0.315625 2.377721 0
M  V30 39 C 7.502158 0.730490 1.327795 0
M  V30 40 C 6.207515 0.401432 0.551490 0 CFG=2
M  V30 41 N 5.936037 1.372795 -0.549765 0
M  V30 42 C 6.872169 1.413634 -1.708755 0
M  V30 43 C 7.994266 2.471066 -1.655789 0
M  V30 44 C 7.503885 0.070827 -2.105164 0
M  V30 45 C 5.535096 2.712474 -0.093130 0
M  V30 46 C 4.689122 3.504305 -1.074833 0
M  V30 47 C 3.550273 2.929864 -1.659602 0
M  V30 48 C 2.646791 3.714544 -2.382642 0
M  V30 49 C 2.895634 5.077328 -2.554192 0
M  V30 50 C 4.062190 5.660382 -2.036775 0
M  V30 51 C 4.326968 7.131716 -2.229924 0
M  V30 52 F 5.650175 7.452546 -2.174493 0
M  V30 53 F 3.717547 7.894673 -1.280525 0
M  V30 54 F 3.881299 7.601572 -3.429187 0
M  V30 55 C 4.940855 4.868632 -1.280566 0
M  V30 56 N 1.410108 3.202458 -2.818774 0
M  V30 57 C 1.124824 1.906170 -3.126624 0
M  V30 58 S 2.019735 0.992401 -4.209600 0
M  V30 59 N -0.032044 1.369465 -2.638931 0
M  V30 60 C -0.835760 1.720535 -1.532683 0
M  V30 61 C -1.978344 0.939114 -1.317383 0
M  V30 62 C -2.817845 1.159249 -0.215410 0
M  V30 63 C -2.495959 2.180261 0.687015 0
M  V30 64 C -1.357613 2.973134 0.496338 0
M  V30 65 C -1.011236 4.041036 1.502219 0
M  V30 66 F -0.681777 3.520455 2.718436 0
M  V30 67 F 0.046141 4.818422 1.132919 0
M  V30 68 F -2.041060 4.902603 1.731332 0
M  V30 69 C -0.531133 2.727068 -0.614257 0
M  V30 70 C -4.012689 0.255085 0.035928 0
M  V30 71 N -5.251189 0.993092 0.303043 0
M  V30 72 C -5.784550 1.660691 -0.898248 0
M  V30 73 C -6.107625 3.135860 -0.619570 0
M  V30 74 C -6.938597 0.981329 -1.630393 0
M  V30 75 C -6.120687 0.341686 1.316127 0 CFG=1
M  V30 76 C -7.206304 1.335106 1.800908 0
M  V30 77 C -8.024381 0.820682 2.975574 0
M  V30 78 C -8.665053 -0.509547 2.632030 0
M  V30 79 C -7.594482 -1.533329 2.283257 0
M  V30 80 C -6.727446 -1.122266 1.054012 0 CFG=2
M  V30 81 H -7.215034 -4.496236 1.246886 0
M  V30 82 H -7.499077 -4.942555 -0.429170 0
M  V30 83 H -8.294419 -3.515435 0.220086 0
M  V30 84 H -5.339179 -3.956742 -0.341405 0
M  V30 85 H -7.359046 -2.150551 -1.690716 0
M  V30 86 H -5.603824 -2.105668 -1.984448 0
M  V30 87 H -6.527331 -3.563966 -2.331331 0
M  V30 88 H -4.695219 -1.859509 2.530253 0
M  V30 89 H -5.633831 -3.350154 2.447221 0
M  V30 90 H -3.176658 -2.465966 -0.225939 0
M  V30 91 H -0.265889 -5.288207 1.214111 0
M  V30 92 H -3.836080 -4.530097 3.475999 0
M  V30 93 H 0.133852 -4.136890 -0.676906 0
M  V30 94 H -0.030745 -2.823498 -3.747111 0
M  V30 95 H 1.079543 -2.164780 -0.272101 0
M  V30 96 H 5.153968 -1.744803 -1.492052 0
M  V30 97 H 2.181490 -2.871117 -4.371736 0
M  V30 98 H 4.585611 -2.065818 0.799908 0
M  V30 99 H 2.987968 -2.152398 1.416991 0
M  V30 100 H 2.742656 -0.057233 2.948561 0
M  V30 101 H 2.362286 2.285220 1.003934 0
M  V30 102 H 3.322566 2.308600 2.498232 0
M  V30 103 H 1.590533 2.155352 2.586196 0
M  V30 104 H 0.389762 0.300179 2.156830 0
M  V30 105 H 0.932108 0.070972 0.494478 0
M  V30 106 H 1.040664 -1.248369 1.696921 0
M  V30 107 H 4.931025 1.190891 2.076861 0
M  V30 108 H 5.457132 -0.051235 3.729283 0
M  V30 109 H 4.696527 -1.456215 3.051282 0
M  V30 110 H 7.054202 -1.897664 3.572612 0
M  V30 111 H 6.760397 -2.075405 1.852993 0
M  V30 112 H 8.790320 -0.845267 2.053749 0
M  V30 113 H 8.158052 0.201714 3.306153 0
M  V30 114 H 8.354683 0.830902 0.652360 0
M  V30 115 H 7.393600 1.701466 1.827818 0
M  V30 116 H 6.338647 -0.579654 0.084783 0
M  V30 117 H 6.251208 1.690006 -2.572262 0
M  V30 118 H 8.637599 2.394782 -2.540333 0
M  V30 119 H 7.599717 3.490440 -1.658488 0
M  V30 120 H 8.635413 2.358755 -0.779718 0
M  V30 121 H 6.741091 -0.677787 -2.311247 0
M  V30 122 H 8.182176 -0.316389 -1.339089 0
M  V30 123 H 8.085649 0.177275 -3.028299 0
M  V30 124 H 6.409523 3.293882 0.225210 0
M  V30 125 H 4.906073 2.667260 0.795663 0
M  V30 126 H 3.338887 1.880201 -1.458328 0
M  V30 127 H 2.187741 5.696483 -3.102330 0
M  V30 128 H 5.816220 5.329640 -0.823187 0
M  V30 129 H 0.680577 3.864318 -3.052870 0
M  V30 130 H -0.247601 0.472916 -3.063577 0
M  V30 131 H -2.225083 0.137625 -2.010377 0
M  V30 132 H -3.137238 2.349891 1.552719 0
M  V30 133 H 0.375966 3.313980 -0.699364 0
M  V30 134 H -4.156905 -0.432698 -0.804751 0
M  V30 135 H -3.715840 -0.338384 0.906841 0
M  V30 136 H -4.980178 1.713347 -1.645177 0
M  V30 137 H -6.230902 3.678253 -1.564757 0
M  V30 138 H -5.292180 3.624164 -0.074497 0
M  V30 139 H -7.030735 3.272986 -0.052787 0
M  V30 140 H -7.206208 1.551535 -2.527773 0
M  V30 141 H -7.844256 0.895403 -1.027383 0
M  V30 142 H -6.643252 -0.012040 -1.968281 0
M  V30 143 H -5.472920 0.225042 2.197961 0
M  V30 144 H -7.909667 1.564330 0.996145 0
M  V30 145 H -6.735532 2.278737 2.104380 0
M  V30 146 H -7.382651 0.714503 3.858568 0
M  V30 147 H -8.801243 1.550383 3.230542 0
M  V30 148 H -9.362336 -0.393781 1.793794 0
M  V30 149 H -9.247869 -0.865892 3.489001 0
M  V30 150 H -8.094498 -2.488870 2.118244 0
M  V30 151 H -6.964016 -1.662299 3.171592 0
M  V30 152 H -7.411558 -1.009847 0.208194 0
M  V30 END ATOM
M  V30 BEGIN BOND
M  V30 1 1 1 2
M  V30 2 1 2 3
M  V30 3 1 2 4
M  V30 4 1 4 5
M  V30 5 1 5 6
M  V30 6 1 6 7
M  V30 7 2 7 8
M  V30 8 1 8 9
M  V30 9 2 9 10
M  V30 10 1 10 11
M  V30 11 1 11 12
M  V30 12 1 11 13
M  V30 13 1 11 14
M  V30 14 1 10 15
M  V30 15 1 8 16
M  V30 16 1 16 17
M  V30 17 2 17 18
M  V30 18 1 17 19
M  V30 19 1 19 20
M  V30 20 1 20 21
M  V30 21 2 21 22
M  V30 22 1 22 23
M  V30 23 2 23 24
M  V30 24 1 24 25
M  V30 25 1 25 26
M  V30 26 1 25 27
M  V30 27 1 25 28
M  V30 28 1 24 29
M  V30 29 1 22 30
M  V30 30 1 30 31
M  V30 31 1 31 32
M  V30 32 1 32 33
M  V30 33 1 32 34
M  V30 34 1 31 35
M  V30 35 1 35 36
M  V30 36 1 36 37
M  V30 37 1 37 38
M  V30 38 1 38 39
M  V30 39 1 39 40
M  V30 40 1 40 41
M  V30 41 1 41 42
M  V30 42 1 42 43
M  V30 43 1 42 44
M  V30 44 1 41 45
M  V30 45 1 45 46
M  V30 46 1 46 47
M  V30 47 2 47 48
M  V30 48 1 48 49
M  V30 49 2 49 50
M  V30 50 1 50 51
M  V30 51 1 51 52
M  V30 52 1 51 53
M  V30 53 1 51 54
M  V30 54 1 50 55
M  V30 55 1 48 56
M  V30 56 1 56 57
M  V30 57 2 57 58
M  V30 58 1 57 59
M  V30 59 1 59 60
M  V30 60 1 60 61
M  V30 61 2 61 62
M  V30 62 1 62 63
M  V30 63 2 63 64
M  V30 64 1 64 65
M  V30 65 1 65 66
M  V30 66 1 65 67
M  V30 67 1 65 68
M  V30 68 1 64 69
M  V30 69 1 62 70
M  V30 70 1 70 71
M  V30 71 1 71 72
M  V30 72 1 72 73
M  V30 73 1 72 74
M  V30 74 1 71 75
M  V30 75 1 75 76
M  V30 76 1 76 77
M  V30 77 1 77 78
M  V30 78 1 78 79
M  V30 79 1 79 80
M  V30 80 1 80 4
M  V30 81 2 15 6
M  V30 82 2 29 20
M  V30 83 1 40 35
M  V30 84 2 55 46
M  V30 85 2 69 60
M  V30 86 1 80 75
M  V30 87 1 1 81
M  V30 88 1 1 82
M  V30 89 1 1 83
M  V30 90 1 2 84
M  V30 91 1 3 85
M  V30 92 1 3 86
M  V30 93 1 3 87
M  V30 94 1 5 88
M  V30 95 1 5 89
M  V30 96 1 7 90
M  V30 97 1 9 91
M  V30 98 1 15 92
M  V30 99 1 16 93
M  V30 100 1 19 94
M  V30 101 1 21 95
M  V30 102 1 23 96
M  V30 103 1 29 97
M  V30 104 1 30 98
M  V30 105 1 30 99
M  V30 106 1 32 100
M  V30 107 1 33 101
M  V30 108 1 33 102
M  V30 109 1 33 103
M  V30 110 1 34 104
M  V30 111 1 34 105
M  V30 112 1 34 106
M  V30 113 1 35 107 CFG=1
M  V30 114 1 36 108
M  V30 115 1 36 109
M  V30 116 1 37 110
M  V30 117 1 37 111
M  V30 118 1 38 112
M  V30 119 1 38 113
M  V30 120 1 39 114
M  V30 121 1 39 115
M  V30 122 1 40 116 CFG=3
M  V30 123 1 42 117
M  V30 124 1 43 118
M  V30 125 1 43 119
M  V30 126 1 43 120
M  V30 127 1 44 121
M  V30 128 1 44 122
M  V30 129 1 44 123
M  V30 130 1 45 124
M  V30 131 1 45 125
M  V30 132 1 47 126
M  V30 133 1 49 127
M  V30 134 1 55 128
M  V30 135 1 56 129
M  V30 136 1 59 130
M  V30 137 1 61 131
M  V30 138 1 63 132
M  V30 139 1 69 133
M  V30 140 1 70 134
M  V30 141 1 70 135
M  V30 142 1 72 136
M  V30 143 1 73 137
M  V30 144 1 73 138
M  V30 145 1 73 139
M  V30 146 1 74 140
M  V30 147 1 74 141
M  V30 148 1 74 142
M  V30 149 1 75 143 CFG=1
M  V30 150 1 76 144
M  V30 151 1 76 145
M  V30 152 1 77 146
M  V30 153 1 77 147
M  V30 154 1 78 148
M  V30 155 1 78 149
M  V30 156 1 79 150
M  V30 157 1 79 151
M  V30 158 1 80 152 CFG=3
M  V30 END BOND
M  V30 END CTAB
M  END
>  <catalyst_id>  (1) 
KRENUESDDQALMO_CFOCFGCLSA_NONE

>  <source_smiles>  (1) 
CC(C)N1Cc2cc(cc(C(F)(F)F)c2)NC(=S)Nc2cc(cc(C(F)(F)F)c2)CN(C(C)C)[C@H]2CCCC[C@@H]2N(C(C)C)Cc2cc(cc(C(F)(F)F)c2)NC(=S)Nc2cc(cc(C(F)(F)F)c2)CN(C(C)C)[C@H]2CCCC[C@@H]21

>  <axial_configuration>  (1) 
none

>  <inchikey>  (1) 
KRENUESDDQALMO-CFOCFGCLSA-N

>  <build_source>  (1) 
smiles

>  <rdkit_version>  (1) 
2025.09.6

>  <random_seed>  (1) 
42

>  <generated_at>  (1) 
2026-05-19T12:37:34

$$$$
