catalyst152
     RDKit          3D

  0  0  0  0  0  0  0  0  0  0999 V3000
M  V30 BEGIN CTAB
M  V30 COUNTS 77 79 0 0 0
M  V30 BEGIN ATOM
M  V30 1 C -3.163832 4.969634 1.022246 0
M  V30 2 C -3.762571 4.143723 -0.074318 0
M  V30 3 O -4.954444 4.116453 -0.346389 0
M  V30 4 O -2.790027 3.425353 -0.698102 0
M  V30 5 C -3.210774 2.553267 -1.765411 0
M  V30 6 C -2.953607 1.079986 -1.405348 0 CFG=1
M  V30 7 O -1.538958 0.858425 -1.390415 0
M  V30 8 C -1.214066 -0.517446 -1.232615 0 CFG=1
M  V30 9 N 0.227881 -0.588696 -1.351187 0
M  V30 10 C 0.946201 -0.705225 -2.500217 0
M  V30 11 S 0.336271 -0.982781 -4.028338 0
M  V30 12 N 2.298807 -0.620014 -2.370233 0
M  V30 13 C 3.109725 -0.622193 -1.134546 0 CFG=1
M  V30 14 C 4.487467 -1.197132 -1.452775 0
M  V30 15 C 4.935390 -2.345955 -0.782562 0
M  V30 16 C 6.195389 -2.881618 -1.053909 0
M  V30 17 C 7.022474 -2.278382 -1.998775 0
M  V30 18 C 6.592326 -1.137842 -2.673034 0
M  V30 19 C 5.333570 -0.598719 -2.402523 0
M  V30 20 C 3.211358 0.802747 -0.458004 0 CFG=1
M  V30 21 N 1.900138 1.479491 -0.316852 0
M  V30 22 C 3.894042 0.739244 0.901466 0
M  V30 23 C 5.196480 1.237457 1.062126 0
M  V30 24 C 5.837821 1.166345 2.300429 0
M  V30 25 C 5.186844 0.597897 3.393185 0
M  V30 26 C 3.894452 0.098998 3.249453 0
M  V30 27 C 3.252146 0.168203 2.012371 0
M  V30 28 C -1.702669 -1.032827 0.133458 0 CFG=2
M  V30 29 O -1.488700 -2.462913 0.226308 0
M  V30 30 C -0.319061 -2.858314 0.796302 0
M  V30 31 C -0.210679 -4.351476 0.754505 0
M  V30 32 O 0.525476 -2.119455 1.280900 0
M  V30 33 C -3.212353 -0.780965 0.274373 0 CFG=1
M  V30 34 O -3.552158 -1.079156 1.654324 0
M  V30 35 C -4.766415 -1.641726 1.888253 0
M  V30 36 C -4.952689 -1.866402 3.357076 0
M  V30 37 O -5.595751 -1.920852 1.034549 0
M  V30 38 C -3.566413 0.682673 -0.052257 0 CFG=2
M  V30 39 O -4.996052 0.841833 -0.162219 0
M  V30 40 C -5.645886 1.325975 0.931591 0
M  V30 41 C -7.107093 1.471684 0.639527 0
M  V30 42 O -5.122569 1.586589 2.006095 0
M  V30 43 H -2.407331 5.642142 0.610101 0
M  V30 44 H -3.946791 5.573562 1.489703 0
M  V30 45 H -2.726328 4.315323 1.780401 0
M  V30 46 H -4.262646 2.700979 -2.032708 0
M  V30 47 H -2.609577 2.827067 -2.639596 0
M  V30 48 H -3.391454 0.476937 -2.212678 0
M  V30 49 H -1.669414 -1.107789 -2.035683 0
M  V30 50 H 0.710345 -0.089964 -0.605939 0
M  V30 51 H 2.794822 -0.797969 -3.235485 0
M  V30 52 H 2.600701 -1.304445 -0.441569 0
M  V30 53 H 4.307322 -2.826760 -0.034760 0
M  V30 54 H 6.532014 -3.769065 -0.524198 0
M  V30 55 H 8.003191 -2.697301 -2.208289 0
M  V30 56 H 7.238446 -0.668117 -3.410214 0
M  V30 57 H 5.018519 0.292787 -2.940371 0
M  V30 58 H 3.802767 1.455423 -1.113816 0
M  V30 59 H 2.060891 2.388313 0.119006 0
M  V30 60 H 1.551610 1.683145 -1.257463 0
M  V30 61 H 5.727806 1.674965 0.219970 0
M  V30 62 H 6.848326 1.550851 2.410651 0
M  V30 63 H 5.687042 0.541785 4.356141 0
M  V30 64 H 3.383000 -0.345978 4.098860 0
M  V30 65 H 2.241272 -0.225343 1.918756 0
M  V30 66 H -1.191025 -0.512377 0.954897 0
M  V30 67 H 0.740077 -4.658246 1.199822 0
M  V30 68 H -1.026014 -4.798481 1.328647 0
M  V30 69 H -0.235173 -4.695544 -0.282561 0
M  V30 70 H -3.756284 -1.465839 -0.389624 0
M  V30 71 H -5.928578 -2.328247 3.531956 0
M  V30 72 H -4.919627 -0.910331 3.885366 0
M  V30 73 H -4.177137 -2.539962 3.730194 0
M  V30 74 H -3.156363 1.322064 0.740064 0
M  V30 75 H -7.249535 2.108286 -0.237423 0
M  V30 76 H -7.551279 0.486875 0.476145 0
M  V30 77 H -7.601089 1.945368 1.492599 0
M  V30 END ATOM
M  V30 BEGIN BOND
M  V30 1 1 1 2
M  V30 2 2 2 3
M  V30 3 1 2 4
M  V30 4 1 4 5
M  V30 5 1 5 6
M  V30 6 1 6 7
M  V30 7 1 7 8
M  V30 8 1 8 9
M  V30 9 1 9 10
M  V30 10 2 10 11
M  V30 11 1 10 12
M  V30 12 1 12 13
M  V30 13 1 13 14
M  V30 14 2 14 15
M  V30 15 1 15 16
M  V30 16 2 16 17
M  V30 17 1 17 18
M  V30 18 2 18 19
M  V30 19 1 13 20
M  V30 20 1 20 21
M  V30 21 1 20 22
M  V30 22 2 22 23
M  V30 23 1 23 24
M  V30 24 2 24 25
M  V30 25 1 25 26
M  V30 26 2 26 27
M  V30 27 1 8 28
M  V30 28 1 28 29
M  V30 29 1 29 30
M  V30 30 1 30 31
M  V30 31 2 30 32
M  V30 32 1 28 33
M  V30 33 1 33 34
M  V30 34 1 34 35
M  V30 35 1 35 36
M  V30 36 2 35 37
M  V30 37 1 33 38
M  V30 38 1 38 39
M  V30 39 1 39 40
M  V30 40 1 40 41
M  V30 41 2 40 42
M  V30 42 1 38 6
M  V30 43 1 19 14
M  V30 44 1 27 22
M  V30 45 1 1 43
M  V30 46 1 1 44
M  V30 47 1 1 45
M  V30 48 1 5 46
M  V30 49 1 5 47
M  V30 50 1 6 48 CFG=3
M  V30 51 1 8 49 CFG=3
M  V30 52 1 9 50
M  V30 53 1 12 51
M  V30 54 1 13 52 CFG=1
M  V30 55 1 15 53
M  V30 56 1 16 54
M  V30 57 1 17 55
M  V30 58 1 18 56
M  V30 59 1 19 57
M  V30 60 1 20 58 CFG=3
M  V30 61 1 21 59
M  V30 62 1 21 60
M  V30 63 1 23 61
M  V30 64 1 24 62
M  V30 65 1 25 63
M  V30 66 1 26 64
M  V30 67 1 27 65
M  V30 68 1 28 66 CFG=1
M  V30 69 1 31 67
M  V30 70 1 31 68
M  V30 71 1 31 69
M  V30 72 1 33 70 CFG=3
M  V30 73 1 36 71
M  V30 74 1 36 72
M  V30 75 1 36 73
M  V30 76 1 38 74 CFG=1
M  V30 77 1 41 75
M  V30 78 1 41 76
M  V30 79 1 41 77
M  V30 END BOND
M  V30 END CTAB
M  END
>  <catalyst_id>  (1) 
KEPQTRHFZVSCLX_WMBRQQINSA_NONE

>  <source_smiles>  (1) 
CC(=O)OC[C@H]1O[C@@H](NC(=S)N[C@@H](c2ccccc2)[C@@H](N)c2ccccc2)[C@H](OC(C)=O)[C@@H](OC(C)=O)[C@@H]1OC(C)=O

>  <axial_configuration>  (1) 
none

>  <inchikey>  (1) 
KEPQTRHFZVSCLX-WMBRQQINSA-N

>  <build_source>  (1) 
smiles

>  <rdkit_version>  (1) 
2025.09.6

>  <random_seed>  (1) 
42

>  <generated_at>  (1) 
2026-05-19T12:33:25

$$$$
