catalyst108
     RDKit          3D

  0  0  0  0  0  0  0  0  0  0999 V3000
M  V30 BEGIN CTAB
M  V30 COUNTS 65 69 0 0 0
M  V30 BEGIN ATOM
M  V30 1 C -3.008862 1.669339 -4.091472 0
M  V30 2 C -2.606843 1.290895 -2.871106 0
M  V30 3 C -2.022842 -0.067149 -2.562390 0 CFG=1
M  V30 4 C -0.600918 0.038822 -1.956162 0
M  V30 5 N -0.376815 -0.943272 -0.851535 0
M  V30 6 C -0.812147 -2.280531 -1.338080 0
M  V30 7 C -2.331492 -2.324239 -1.577974 0
M  V30 8 C -2.886137 -0.887192 -1.575186 0 CFG=1
M  V30 9 C -2.694427 -0.318672 -0.153677 0
M  V30 10 C -1.243898 -0.587630 0.332829 0 CFG=2
M  V30 11 C -0.636414 0.549039 1.250152 0 CFG=2
M  V30 12 N 0.522124 0.111459 2.049763 0
M  V30 13 C 1.818089 -0.104635 1.678533 0
M  V30 14 S 2.911444 -0.281128 2.930279 0
M  V30 15 N 2.047068 -0.179882 0.333431 0
M  V30 16 C 3.247759 -0.134936 -0.405753 0
M  V30 17 C 3.237410 -0.725374 -1.674864 0
M  V30 18 C 4.374036 -0.709174 -2.499132 0
M  V30 19 C 4.344279 -1.391264 -3.844645 0
M  V30 20 F 5.222402 -0.853758 -4.735897 0
M  V30 21 F 3.122153 -1.328381 -4.444312 0
M  V30 22 F 4.653502 -2.713600 -3.762133 0
M  V30 23 C 5.538387 -0.083495 -2.032446 0
M  V30 24 C 5.560401 0.546035 -0.778293 0
M  V30 25 C 6.811551 1.227943 -0.277246 0
M  V30 26 F 6.554346 2.335631 0.471439 0
M  V30 27 F 7.626013 1.646694 -1.286918 0
M  V30 28 F 7.572322 0.411412 0.500490 0
M  V30 29 C 4.405945 0.513532 0.024216 0
M  V30 30 C -1.657214 1.203069 2.184379 0
M  V30 31 C -1.940640 2.560836 1.966438 0
M  V30 32 C -2.882797 3.184582 2.756927 0
M  V30 33 N -3.558141 2.563834 3.739618 0
M  V30 34 C -3.286595 1.272896 3.981255 0
M  V30 35 C -3.982249 0.657958 5.012926 0
M  V30 36 C -3.768123 -0.675862 5.358614 0
M  V30 37 C -2.830313 -1.418332 4.660433 0
M  V30 38 C -2.119999 -0.824362 3.616674 0
M  V30 39 C -2.334093 0.527393 3.242915 0
M  V30 40 H -2.940926 1.008097 -4.950138 0
M  V30 41 H -3.422844 2.659659 -4.258250 0
M  V30 42 H -2.703924 2.003147 -2.054423 0
M  V30 43 H -1.952225 -0.636278 -3.500778 0
M  V30 44 H -0.382070 1.052645 -1.600820 0
M  V30 45 H 0.136981 -0.149285 -2.746953 0
M  V30 46 H -0.273024 -2.528876 -2.261178 0
M  V30 47 H -0.525078 -3.052281 -0.613427 0
M  V30 48 H -2.541734 -2.814482 -2.535629 0
M  V30 49 H -2.822180 -2.915415 -0.795260 0
M  V30 50 H -3.944412 -0.879371 -1.858229 0
M  V30 51 H -3.400045 -0.807192 0.529816 0
M  V30 52 H -2.934798 0.748388 -0.151298 0
M  V30 53 H -1.275606 -1.488389 0.959353 0
M  V30 54 H -0.241949 1.330120 0.588627 0
M  V30 55 H 0.431366 0.210020 3.055740 0
M  V30 56 H 1.238774 -0.538887 -0.179889 0
M  V30 57 H 2.339119 -1.229481 -2.029255 0
M  V30 58 H 6.434314 -0.075365 -2.655688 0
M  V30 59 H 4.429543 1.039022 0.975528 0
M  V30 60 H -1.441734 3.130514 1.188260 0
M  V30 61 H -3.130772 4.232746 2.615160 0
M  V30 62 H -4.712963 1.240235 5.570555 0
M  V30 63 H -4.328195 -1.122734 6.175638 0
M  V30 64 H -2.643674 -2.455441 4.928236 0
M  V30 65 H -1.380213 -1.439618 3.113195 0
M  V30 END ATOM
M  V30 BEGIN BOND
M  V30 1 2 1 2
M  V30 2 1 2 3
M  V30 3 1 3 4
M  V30 4 1 4 5
M  V30 5 1 5 6
M  V30 6 1 6 7
M  V30 7 1 7 8
M  V30 8 1 8 9
M  V30 9 1 9 10
M  V30 10 1 10 11
M  V30 11 1 11 12
M  V30 12 1 12 13
M  V30 13 2 13 14
M  V30 14 1 13 15
M  V30 15 1 15 16
M  V30 16 2 16 17
M  V30 17 1 17 18
M  V30 18 1 18 19
M  V30 19 1 19 20
M  V30 20 1 19 21
M  V30 21 1 19 22
M  V30 22 2 18 23
M  V30 23 1 23 24
M  V30 24 1 24 25
M  V30 25 1 25 26
M  V30 26 1 25 27
M  V30 27 1 25 28
M  V30 28 2 24 29
M  V30 29 1 11 30
M  V30 30 2 30 31
M  V30 31 1 31 32
M  V30 32 2 32 33
M  V30 33 1 33 34
M  V30 34 2 34 35
M  V30 35 1 35 36
M  V30 36 2 36 37
M  V30 37 1 37 38
M  V30 38 2 38 39
M  V30 39 1 8 3
M  V30 40 1 29 16
M  V30 41 1 39 30
M  V30 42 1 10 5
M  V30 43 1 39 34
M  V30 44 1 1 40
M  V30 45 1 1 41
M  V30 46 1 2 42
M  V30 47 1 3 43 CFG=3
M  V30 48 1 4 44
M  V30 49 1 4 45
M  V30 50 1 6 46
M  V30 51 1 6 47
M  V30 52 1 7 48
M  V30 53 1 7 49
M  V30 54 1 8 50 CFG=3
M  V30 55 1 9 51
M  V30 56 1 9 52
M  V30 57 1 10 53 CFG=1
M  V30 58 1 11 54 CFG=3
M  V30 59 1 12 55
M  V30 60 1 15 56
M  V30 61 1 17 57
M  V30 62 1 23 58
M  V30 63 1 29 59
M  V30 64 1 31 60
M  V30 65 1 32 61
M  V30 66 1 35 62
M  V30 67 1 36 63
M  V30 68 1 37 64
M  V30 69 1 38 65
M  V30 END BOND
M  V30 END CTAB
M  END
>  <catalyst_id>  (1) 
IIQBCCXHYIEQTC_WAJMBDEPSA_NONE

>  <source_smiles>  (1) 
C=C[C@H]1CN2CC[C@H]1C[C@@H]2[C@H](NC(=S)Nc1cc(C(F)(F)F)cc(C(F)(F)F)c1)c1ccnc2ccccc12

>  <axial_configuration>  (1) 
none

>  <inchikey>  (1) 
IIQBCCXHYIEQTC-WAJMBDEPSA-N

>  <build_source>  (1) 
smiles

>  <rdkit_version>  (1) 
2025.09.6

>  <random_seed>  (1) 
42

>  <generated_at>  (1) 
2026-05-19T12:32:31

$$$$
