catalyst261
     RDKit          3D

  0  0  0  0  0  0  0  0  0  0999 V3000
M  V30 BEGIN CTAB
M  V30 COUNTS 18 18 0 0 0
M  V30 BEGIN ATOM
M  V30 1 O 1.794961 -1.317050 1.093943 0
M  V30 2 C 1.492453 -0.136327 0.989766 0
M  V30 3 O 1.690434 0.711607 2.018825 0
M  V30 4 C 0.956357 0.553961 -0.269249 0 CFG=2
M  V30 5 C -0.363317 1.272033 -0.042067 0
M  V30 6 C -1.383929 0.150272 -0.122934 0 CFG=2
M  V30 7 O -1.559458 -0.392597 1.185089 0
M  V30 8 C -0.750987 -0.881147 -1.063289 0
M  V30 9 N 0.629495 -0.442290 -1.322233 0
M  V30 10 H 2.006226 0.130443 2.741539 0
M  V30 11 H 1.736155 1.230803 -0.632993 0
M  V30 12 H -0.535628 1.988169 -0.855095 0
M  V30 13 H -0.403499 1.806587 0.912038 0
M  V30 14 H -2.354195 0.509093 -0.479692 0
M  V30 15 H -2.170962 -1.145912 1.110429 0
M  V30 16 H -1.285319 -0.909940 -2.018138 0
M  V30 17 H -0.762299 -1.887434 -0.630560 0
M  V30 18 H 1.263514 -1.240270 -1.218237 0
M  V30 END ATOM
M  V30 BEGIN BOND
M  V30 1 2 1 2
M  V30 2 1 2 3
M  V30 3 1 2 4
M  V30 4 1 4 5
M  V30 5 1 5 6
M  V30 6 1 6 7
M  V30 7 1 6 8
M  V30 8 1 8 9
M  V30 9 1 9 4
M  V30 10 1 3 10
M  V30 11 1 4 11 CFG=3
M  V30 12 1 5 12
M  V30 13 1 5 13
M  V30 14 1 6 14 CFG=3
M  V30 15 1 7 15
M  V30 16 1 8 16
M  V30 17 1 8 17
M  V30 18 1 9 18
M  V30 END BOND
M  V30 END CTAB
M  END
>  <catalyst_id>  (1) 
PMMYEEVYMWASQN_IMJSIDKUSA_NONE

>  <source_smiles>  (1) 
O=C(O)[C@@H]1C[C@H](O)CN1

>  <axial_configuration>  (1) 
none

>  <inchikey>  (1) 
PMMYEEVYMWASQN-IMJSIDKUSA-N

>  <build_source>  (1) 
smiles

>  <rdkit_version>  (1) 
2025.09.6

>  <random_seed>  (1) 
42

>  <generated_at>  (1) 
2026-05-19T12:31:59

$$$$
