catalyst35
     RDKit          3D

  0  0  0  0  0  0  0  0  0  0999 V3000
M  V30 BEGIN CTAB
M  V30 COUNTS 172 180 0 0 0
M  V30 BEGIN ATOM
M  V30 1 C 6.906677 2.501961 -3.208196 0
M  V30 2 C 5.392515 2.408945 -3.155105 0
M  V30 3 C 4.773793 1.783333 -1.888922 0
M  V30 4 N 4.999629 2.350370 -0.542228 0
M  V30 5 C 5.070057 3.828541 -0.517469 0
M  V30 6 C 3.970397 4.625755 -1.203240 0
M  V30 7 C 2.605323 4.294127 -1.114474 0
M  V30 8 C 1.636522 5.113006 -1.705286 0
M  V30 9 C 2.049580 6.253885 -2.413231 0
M  V30 10 C 3.397718 6.616734 -2.502285 0
M  V30 11 C 3.821105 7.840772 -3.273151 0
M  V30 12 F 2.851594 8.795803 -3.338757 0
M  V30 13 F 4.913683 8.454272 -2.738753 0
M  V30 14 F 4.147652 7.550548 -4.562350 0
M  V30 15 C 4.347119 5.798545 -1.885596 0
M  V30 16 N 0.245814 4.893806 -1.698550 0
M  V30 17 C -0.607267 4.053956 -1.039705 0
M  V30 18 S -2.174627 4.090988 -1.626026 0
M  V30 19 N -0.112824 3.377081 0.036175 0
M  V30 20 C -0.661842 2.352241 0.845370 0
M  V30 21 C -1.746853 1.540964 0.504222 0
M  V30 22 C -2.223908 0.547839 1.380373 0
M  V30 23 C -1.575100 0.354185 2.608522 0
M  V30 24 C -0.456818 1.125224 2.955158 0
M  V30 25 C 0.248822 0.909853 4.268696 0
M  V30 26 F 0.368648 -0.406992 4.607037 0
M  V30 27 F -0.389994 1.509180 5.310321 0
M  V30 28 F 1.520941 1.402348 4.278977 0
M  V30 29 C -0.018456 2.122406 2.068819 0
M  V30 30 C -3.410162 -0.316518 0.984768 0
M  V30 31 N -4.662964 0.427787 0.871370 0
M  V30 32 C -5.234809 0.834104 2.152651 0
M  V30 33 C -5.986623 2.171039 2.096542 0
M  V30 34 C -5.089066 3.341661 1.721638 0
M  V30 35 C -5.628719 -0.089236 -0.141126 0 CFG=1
M  V30 36 C -5.227031 0.549576 -1.490943 0
M  V30 37 C -5.778846 1.792007 -1.851916 0
M  V30 38 C -5.451407 2.400264 -3.065888 0
M  V30 39 C -4.560312 1.781680 -3.936888 0
M  V30 40 C -3.985232 0.562689 -3.588425 0
M  V30 41 C -4.309467 -0.044471 -2.372506 0
M  V30 42 C -5.924039 -1.688280 -0.228715 0 CFG=2
M  V30 43 C -6.569439 -2.135459 -1.568212 0
M  V30 44 C -7.631860 -1.443473 -2.173035 0
M  V30 45 C -8.187479 -1.889024 -3.375850 0
M  V30 46 C -7.708463 -3.045297 -3.983300 0
M  V30 47 C -6.667494 -3.754688 -3.394146 0
M  V30 48 C -6.100286 -3.301001 -2.201724 0
M  V30 49 N -6.707660 -2.365678 0.852172 0
M  V30 50 C -7.935868 -1.675654 1.259045 0
M  V30 51 C -9.057267 -2.629255 1.703236 0
M  V30 52 C -9.476025 -3.607945 0.615084 0
M  V30 53 C -5.951007 -2.885910 1.994631 0
M  V30 54 C -4.906997 -3.928033 1.648668 0
M  V30 55 C -3.616179 -3.805369 2.175461 0
M  V30 56 C -2.588526 -4.666430 1.791744 0
M  V30 57 C -2.866309 -5.703875 0.901569 0
M  V30 58 C -4.178236 -5.914665 0.439336 0
M  V30 59 C -4.487611 -7.044797 -0.510510 0
M  V30 60 F -3.585003 -8.064637 -0.441785 0
M  V30 61 F -4.489187 -6.636316 -1.810638 0
M  V30 62 F -5.706453 -7.612920 -0.290357 0
M  V30 63 C -5.190886 -5.019010 0.820949 0
M  V30 64 N -1.251906 -4.430655 2.171300 0
M  V30 65 C -0.800760 -3.671726 3.213349 0
M  V30 66 S -1.399906 -3.719978 4.779040 0
M  V30 67 N 0.289784 -2.882226 2.990430 0
M  V30 68 C 0.803413 -2.308299 1.809386 0
M  V30 69 C 1.991746 -1.581391 1.942647 0
M  V30 70 C 2.581050 -0.932019 0.845316 0
M  V30 71 C 1.945394 -0.985062 -0.399214 0
M  V30 72 C 0.730847 -1.670485 -0.544771 0
M  V30 73 C 0.010467 -1.702223 -1.868246 0
M  V30 74 F 0.500151 -0.822600 -2.784274 0
M  V30 75 F -1.316092 -1.421609 -1.747584 0
M  V30 76 F 0.077056 -2.930000 -2.455807 0
M  V30 77 C 0.173101 -2.335892 0.566472 0
M  V30 78 C 3.894146 -0.194249 1.023390 0
M  V30 79 N 5.031758 -0.760794 0.251266 0
M  V30 80 C 5.289269 -2.150062 0.740153 0
M  V30 81 C 5.678121 -3.137038 -0.370053 0
M  V30 82 C 5.528751 -4.579123 0.101187 0
M  V30 83 C 6.244324 0.120731 0.471550 0 CFG=1
M  V30 84 C 7.531067 -0.426455 -0.177769 0
M  V30 85 C 7.603333 -0.725012 -1.545936 0
M  V30 86 C 8.794684 -1.175092 -2.120493 0
M  V30 87 C 9.932149 -1.332153 -1.334608 0
M  V30 88 C 9.879899 -1.039715 0.025559 0
M  V30 89 C 8.690220 -0.588381 0.601151 0
M  V30 90 C 6.197708 1.725652 0.136978 0 CFG=2
M  V30 91 C 6.582806 2.437725 1.458289 0
M  V30 92 C 5.671133 2.574413 2.520649 0
M  V30 93 C 6.050788 3.200633 3.708633 0
M  V30 94 C 7.345015 3.695486 3.853959 0
M  V30 95 C 8.259973 3.568731 2.810252 0
M  V30 96 C 7.883994 2.943066 1.620618 0
M  V30 97 H 7.219277 2.921477 -4.171984 0
M  V30 98 H 7.309383 3.154091 -2.429589 0
M  V30 99 H 7.367739 1.518714 -3.118915 0
M  V30 100 H 4.974082 3.400361 -3.343210 0
M  V30 101 H 5.067588 1.798982 -4.008703 0
M  V30 102 H 3.688077 1.799664 -2.045036 0
M  V30 103 H 5.002231 0.716354 -1.897652 0
M  V30 104 H 6.043058 4.154667 -0.908671 0
M  V30 105 H 5.020897 4.185900 0.518470 0
M  V30 106 H 2.345177 3.364844 -0.619046 0
M  V30 107 H 1.308247 6.891639 -2.895418 0
M  V30 108 H 5.401647 6.073434 -1.944196 0
M  V30 109 H -0.279552 5.465405 -2.353444 0
M  V30 110 H 0.687794 3.840697 0.440486 0
M  V30 111 H -2.252137 1.638752 -0.450754 0
M  V30 112 H -1.927417 -0.415946 3.290990 0
M  V30 113 H 0.838977 2.732476 2.351215 0
M  V30 114 H -3.525437 -1.123835 1.707663 0
M  V30 115 H -3.126541 -0.797752 0.043346 0
M  V30 116 H -4.449304 0.950985 2.910328 0
M  V30 117 H -5.899413 0.065046 2.551322 0
M  V30 118 H -6.413811 2.366119 3.088905 0
M  V30 119 H -6.832751 2.122344 1.403904 0
M  V30 120 H -5.644011 4.280649 1.804921 0
M  V30 121 H -4.223425 3.403556 2.388380 0
M  V30 122 H -4.727280 3.258313 0.694485 0
M  V30 123 H -6.607750 0.355829 0.073871 0
M  V30 124 H -6.465655 2.300759 -1.180029 0
M  V30 125 H -5.878528 3.365149 -3.321564 0
M  V30 126 H -4.298661 2.257368 -4.878165 0
M  V30 127 H -3.276940 0.082902 -4.258916 0
M  V30 128 H -3.835990 -0.993257 -2.132384 0
M  V30 129 H -4.930047 -2.149418 -0.261011 0
M  V30 130 H -8.030511 -0.535657 -1.729462 0
M  V30 131 H -8.996342 -1.329469 -3.838037 0
M  V30 132 H -8.143898 -3.390617 -4.917364 0
M  V30 133 H -6.289147 -4.658325 -3.863860 0
M  V30 134 H -5.278199 -3.864552 -1.772034 0
M  V30 135 H -7.734050 -0.967433 2.069891 0
M  V30 136 H -8.352441 -1.078555 0.441508 0
M  V30 137 H -8.770979 -3.183712 2.603429 0
M  V30 138 H -9.929444 -2.025069 1.983436 0
M  V30 139 H -9.761605 -3.081417 -0.299175 0
M  V30 140 H -8.670612 -4.307488 0.368583 0
M  V30 141 H -10.336138 -4.195571 0.950846 0
M  V30 142 H -5.491466 -2.064380 2.551565 0
M  V30 143 H -6.618787 -3.386655 2.706760 0
M  V30 144 H -3.410629 -2.975456 2.843594 0
M  V30 145 H -2.071438 -6.371925 0.571291 0
M  V30 146 H -6.204221 -5.146971 0.437369 0
M  V30 147 H -0.527829 -4.884171 1.624583 0
M  V30 148 H 0.669717 -2.501358 3.853082 0
M  V30 149 H 2.494878 -1.540921 2.906915 0
M  V30 150 H 2.396353 -0.482024 -1.253710 0
M  V30 151 H -0.791249 -2.813122 0.430976 0
M  V30 152 H 4.148480 -0.157502 2.091858 0
M  V30 153 H 3.672345 0.831849 0.728956 0
M  V30 154 H 6.031506 -2.166803 1.550810 0
M  V30 155 H 4.389266 -2.574811 1.198117 0
M  V30 156 H 5.048811 -2.984844 -1.255649 0
M  V30 157 H 6.718956 -2.998789 -0.668613 0
M  V30 158 H 5.905125 -5.270925 -0.661578 0
M  V30 159 H 4.475790 -4.816092 0.289116 0
M  V30 160 H 6.089986 -4.749752 1.028279 0
M  V30 161 H 6.422932 0.039276 1.555475 0
M  V30 162 H 6.723646 -0.632230 -2.175022 0
M  V30 163 H 8.828666 -1.408763 -3.181522 0
M  V30 164 H 10.857911 -1.684936 -1.782856 0
M  V30 165 H 10.768069 -1.161247 0.640513 0
M  V30 166 H 8.678174 -0.358436 1.665004 0
M  V30 167 H 7.032353 1.931188 -0.544505 0
M  V30 168 H 4.650295 2.216496 2.418407 0
M  V30 169 H 5.332801 3.306198 4.518478 0
M  V30 170 H 7.640108 4.184454 4.778280 0
M  V30 171 H 9.269006 3.957805 2.919628 0
M  V30 172 H 8.617817 2.849702 0.820975 0
M  V30 END ATOM
M  V30 BEGIN BOND
M  V30 1 1 1 2
M  V30 2 1 2 3
M  V30 3 1 3 4
M  V30 4 1 4 5
M  V30 5 1 5 6
M  V30 6 1 6 7
M  V30 7 2 7 8
M  V30 8 1 8 9
M  V30 9 2 9 10
M  V30 10 1 10 11
M  V30 11 1 11 12
M  V30 12 1 11 13
M  V30 13 1 11 14
M  V30 14 1 10 15
M  V30 15 1 8 16
M  V30 16 1 16 17
M  V30 17 2 17 18
M  V30 18 1 17 19
M  V30 19 1 19 20
M  V30 20 1 20 21
M  V30 21 2 21 22
M  V30 22 1 22 23
M  V30 23 2 23 24
M  V30 24 1 24 25
M  V30 25 1 25 26
M  V30 26 1 25 27
M  V30 27 1 25 28
M  V30 28 1 24 29
M  V30 29 1 22 30
M  V30 30 1 30 31
M  V30 31 1 31 32
M  V30 32 1 32 33
M  V30 33 1 33 34
M  V30 34 1 31 35
M  V30 35 1 35 36
M  V30 36 2 36 37
M  V30 37 1 37 38
M  V30 38 2 38 39
M  V30 39 1 39 40
M  V30 40 2 40 41
M  V30 41 1 35 42
M  V30 42 1 42 43
M  V30 43 2 43 44
M  V30 44 1 44 45
M  V30 45 2 45 46
M  V30 46 1 46 47
M  V30 47 2 47 48
M  V30 48 1 42 49
M  V30 49 1 49 50
M  V30 50 1 50 51
M  V30 51 1 51 52
M  V30 52 1 49 53
M  V30 53 1 53 54
M  V30 54 1 54 55
M  V30 55 2 55 56
M  V30 56 1 56 57
M  V30 57 2 57 58
M  V30 58 1 58 59
M  V30 59 1 59 60
M  V30 60 1 59 61
M  V30 61 1 59 62
M  V30 62 1 58 63
M  V30 63 1 56 64
M  V30 64 1 64 65
M  V30 65 2 65 66
M  V30 66 1 65 67
M  V30 67 1 67 68
M  V30 68 1 68 69
M  V30 69 2 69 70
M  V30 70 1 70 71
M  V30 71 2 71 72
M  V30 72 1 72 73
M  V30 73 1 73 74
M  V30 74 1 73 75
M  V30 75 1 73 76
M  V30 76 1 72 77
M  V30 77 1 70 78
M  V30 78 1 78 79
M  V30 79 1 79 80
M  V30 80 1 80 81
M  V30 81 1 81 82
M  V30 82 1 79 83
M  V30 83 1 83 84
M  V30 84 2 84 85
M  V30 85 1 85 86
M  V30 86 2 86 87
M  V30 87 1 87 88
M  V30 88 2 88 89
M  V30 89 1 83 90
M  V30 90 1 90 91
M  V30 91 2 91 92
M  V30 92 1 92 93
M  V30 93 2 93 94
M  V30 94 1 94 95
M  V30 95 2 95 96
M  V30 96 1 90 4
M  V30 97 1 96 91
M  V30 98 2 15 6
M  V30 99 2 29 20
M  V30 100 1 41 36
M  V30 101 1 48 43
M  V30 102 2 63 54
M  V30 103 2 77 68
M  V30 104 1 89 84
M  V30 105 1 1 97
M  V30 106 1 1 98
M  V30 107 1 1 99
M  V30 108 1 2 100
M  V30 109 1 2 101
M  V30 110 1 3 102
M  V30 111 1 3 103
M  V30 112 1 5 104
M  V30 113 1 5 105
M  V30 114 1 7 106
M  V30 115 1 9 107
M  V30 116 1 15 108
M  V30 117 1 16 109
M  V30 118 1 19 110
M  V30 119 1 21 111
M  V30 120 1 23 112
M  V30 121 1 29 113
M  V30 122 1 30 114
M  V30 123 1 30 115
M  V30 124 1 32 116
M  V30 125 1 32 117
M  V30 126 1 33 118
M  V30 127 1 33 119
M  V30 128 1 34 120
M  V30 129 1 34 121
M  V30 130 1 34 122
M  V30 131 1 35 123 CFG=1
M  V30 132 1 37 124
M  V30 133 1 38 125
M  V30 134 1 39 126
M  V30 135 1 40 127
M  V30 136 1 41 128
M  V30 137 1 42 129 CFG=3
M  V30 138 1 44 130
M  V30 139 1 45 131
M  V30 140 1 46 132
M  V30 141 1 47 133
M  V30 142 1 48 134
M  V30 143 1 50 135
M  V30 144 1 50 136
M  V30 145 1 51 137
M  V30 146 1 51 138
M  V30 147 1 52 139
M  V30 148 1 52 140
M  V30 149 1 52 141
M  V30 150 1 53 142
M  V30 151 1 53 143
M  V30 152 1 55 144
M  V30 153 1 57 145
M  V30 154 1 63 146
M  V30 155 1 64 147
M  V30 156 1 67 148
M  V30 157 1 69 149
M  V30 158 1 71 150
M  V30 159 1 77 151
M  V30 160 1 78 152
M  V30 161 1 78 153
M  V30 162 1 80 154
M  V30 163 1 80 155
M  V30 164 1 81 156
M  V30 165 1 81 157
M  V30 166 1 82 158
M  V30 167 1 82 159
M  V30 168 1 82 160
M  V30 169 1 83 161 CFG=1
M  V30 170 1 85 162
M  V30 171 1 86 163
M  V30 172 1 87 164
M  V30 173 1 88 165
M  V30 174 1 89 166
M  V30 175 1 90 167 CFG=3
M  V30 176 1 92 168
M  V30 177 1 93 169
M  V30 178 1 94 170
M  V30 179 1 95 171
M  V30 180 1 96 172
M  V30 END BOND
M  V30 END CTAB
M  END
>  <catalyst_id>  (1) 
CUTFSLRGUGRNEP_DNPWPEFLSA_NONE

>  <source_smiles>  (1) 
CCCN1Cc2cc(cc(C(F)(F)F)c2)NC(=S)Nc2cc(cc(C(F)(F)F)c2)CN(CCC)[C@@H](c2ccccc2)[C@H](c2ccccc2)N(CCC)Cc2cc(cc(C(F)(F)F)c2)NC(=S)Nc2cc(cc(C(F)(F)F)c2)CN(CCC)[C@@H](c2ccccc2)[C@@H]1c1ccccc1

>  <axial_configuration>  (1) 
none

>  <inchikey>  (1) 
CUTFSLRGUGRNEP-DNPWPEFLSA-N

>  <build_source>  (1) 
smiles

>  <rdkit_version>  (1) 
2025.09.6

>  <random_seed>  (1) 
42

>  <generated_at>  (1) 
2026-05-19T12:37:52

$$$$
