catalyst149
     RDKit          3D

  0  0  0  0  0  0  0  0  0  0999 V3000
M  V30 BEGIN CTAB
M  V30 COUNTS 85 89 0 0 0
M  V30 BEGIN ATOM
M  V30 1 C -4.940856 1.471120 -0.648189 0
M  V30 2 N -4.076432 2.566383 -1.078693 0
M  V30 3 C -3.714761 2.405268 -2.486013 0
M  V30 4 C -2.928860 2.804075 -0.169311 0 CFG=2
M  V30 5 C -2.562358 4.304854 -0.244064 0
M  V30 6 C -1.460041 4.678888 0.744523 0
M  V30 7 C -0.219791 3.816541 0.552457 0
M  V30 8 C -0.560877 2.335150 0.648006 0
M  V30 9 C -1.646008 1.927771 -0.363239 0 CFG=1
M  V30 10 N -1.928381 0.489270 -0.199648 0
M  V30 11 C -1.319121 -0.566084 -0.843171 0
M  V30 12 S -0.186816 -0.421781 -2.061820 0
M  V30 13 N -1.782714 -1.763389 -0.350003 0
M  V30 14 C -1.391204 -3.108677 -0.772548 0 CFG=2
M  V30 15 C -2.591300 -3.991343 -0.970891 0
M  V30 16 C -3.774233 -3.698242 -1.634759 0
M  V30 17 C -4.745974 -4.695461 -1.735290 0
M  V30 18 C -4.520279 -5.968276 -1.190162 0
M  V30 19 C -3.319484 -6.261165 -0.540308 0
M  V30 20 C -2.366495 -5.261392 -0.435680 0
M  V30 21 C -1.006332 -5.354023 0.177449 0
M  V30 22 C -0.606729 -3.868996 0.344564 0 CFG=1
M  V30 23 O 0.807212 -3.672626 0.147929 0
M  V30 24 C 1.511693 -3.609958 1.329163 0
M  V30 25 C 1.544363 -4.700988 2.202421 0
M  V30 26 C 2.270719 -4.627158 3.390608 0
M  V30 27 C 2.985848 -3.467306 3.710863 0
M  V30 28 C 3.786601 -3.372972 4.987431 0
M  V30 29 F 3.595147 -2.197855 5.647456 0
M  V30 30 F 3.478393 -4.352911 5.884808 0
M  V30 31 F 5.126356 -3.475860 4.771981 0
M  V30 32 C 2.984909 -2.392272 2.803274 0
M  V30 33 C 2.265099 -2.453720 1.604517 0
M  V30 34 N 2.258527 -1.415985 0.642265 0
M  V30 35 C 2.926715 -0.202273 0.696398 0
M  V30 36 O 3.611544 0.173508 1.639277 0
M  V30 37 N 2.709733 0.537051 -0.455713 0
M  V30 38 C 3.191330 1.828870 -0.758393 0
M  V30 39 C 4.071379 2.548810 0.051260 0
M  V30 40 C 4.489485 3.844508 -0.301779 0
M  V30 41 C 5.423414 4.606580 0.609082 0
M  V30 42 F 6.430822 3.838365 1.106138 0
M  V30 43 F 6.031149 5.658190 -0.010217 0
M  V30 44 F 4.779060 5.133267 1.686379 0
M  V30 45 C 4.000373 4.422742 -1.483030 0
M  V30 46 C 3.123425 3.714946 -2.315845 0
M  V30 47 C 2.578766 4.322424 -3.585699 0
M  V30 48 F 2.848245 3.564801 -4.684029 0
M  V30 49 F 3.076261 5.561378 -3.853469 0
M  V30 50 F 1.224568 4.463262 -3.548923 0
M  V30 51 C 2.734026 2.417189 -1.944279 0
M  V30 52 H -5.250981 1.601651 0.394360 0
M  V30 53 H -5.862475 1.461188 -1.241798 0
M  V30 54 H -4.470412 0.488846 -0.750001 0
M  V30 55 H -4.617484 2.406863 -3.107899 0
M  V30 56 H -3.181273 1.469002 -2.678999 0
M  V30 57 H -3.098319 3.235865 -2.843241 0
M  V30 58 H -3.286259 2.637472 0.857741 0
M  V30 59 H -3.448121 4.917048 -0.031093 0
M  V30 60 H -2.227836 4.570679 -1.254409 0
M  V30 61 H -1.833931 4.562650 1.769174 0
M  V30 62 H -1.196873 5.735369 0.619311 0
M  V30 63 H 0.529632 4.073118 1.309799 0
M  V30 64 H 0.228353 4.028905 -0.425835 0
M  V30 65 H 0.345933 1.744093 0.489473 0
M  V30 66 H -0.898488 2.103688 1.667108 0
M  V30 67 H -1.251564 2.102099 -1.370086 0
M  V30 68 H -2.468505 0.265137 0.623110 0
M  V30 69 H -2.549614 -1.729163 0.305497 0
M  V30 70 H -0.809827 -3.086788 -1.699083 0
M  V30 71 H -3.940749 -2.720393 -2.077576 0
M  V30 72 H -5.681067 -4.489389 -2.251140 0
M  V30 73 H -5.284125 -6.736962 -1.285945 0
M  V30 74 H -3.142131 -7.252676 -0.134770 0
M  V30 75 H -0.315241 -5.891579 -0.480247 0
M  V30 76 H -1.053989 -5.859667 1.146262 0
M  V30 77 H -0.931620 -3.498294 1.329769 0
M  V30 78 H 1.033441 -5.627187 1.964552 0
M  V30 79 H 2.285045 -5.484658 4.062538 0
M  V30 80 H 3.572003 -1.515213 3.064250 0
M  V30 81 H 1.716065 -1.620726 -0.187942 0
M  V30 82 H 2.054038 0.141492 -1.118632 0
M  V30 83 H 4.458681 2.126227 0.975740 0
M  V30 84 H 4.309493 5.433218 -1.755743 0
M  V30 85 H 2.052091 1.873586 -2.597334 0
M  V30 END ATOM
M  V30 BEGIN BOND
M  V30 1 1 1 2
M  V30 2 1 2 3
M  V30 3 1 2 4
M  V30 4 1 4 5
M  V30 5 1 5 6
M  V30 6 1 6 7
M  V30 7 1 7 8
M  V30 8 1 8 9
M  V30 9 1 9 10
M  V30 10 1 10 11
M  V30 11 2 11 12
M  V30 12 1 11 13
M  V30 13 1 13 14
M  V30 14 1 14 15
M  V30 15 2 15 16
M  V30 16 1 16 17
M  V30 17 2 17 18
M  V30 18 1 18 19
M  V30 19 2 19 20
M  V30 20 1 20 21
M  V30 21 1 21 22
M  V30 22 1 22 23
M  V30 23 1 23 24
M  V30 24 2 24 25
M  V30 25 1 25 26
M  V30 26 2 26 27
M  V30 27 1 27 28
M  V30 28 1 28 29
M  V30 29 1 28 30
M  V30 30 1 28 31
M  V30 31 1 27 32
M  V30 32 2 32 33
M  V30 33 1 33 34
M  V30 34 1 34 35
M  V30 35 2 35 36
M  V30 36 1 35 37
M  V30 37 1 37 38
M  V30 38 2 38 39
M  V30 39 1 39 40
M  V30 40 1 40 41
M  V30 41 1 41 42
M  V30 42 1 41 43
M  V30 43 1 41 44
M  V30 44 2 40 45
M  V30 45 1 45 46
M  V30 46 1 46 47
M  V30 47 1 47 48
M  V30 48 1 47 49
M  V30 49 1 47 50
M  V30 50 2 46 51
M  V30 51 1 9 4
M  V30 52 1 22 14
M  V30 53 1 33 24
M  V30 54 1 51 38
M  V30 55 1 20 15
M  V30 56 1 1 52
M  V30 57 1 1 53
M  V30 58 1 1 54
M  V30 59 1 3 55
M  V30 60 1 3 56
M  V30 61 1 3 57
M  V30 62 1 4 58 CFG=1
M  V30 63 1 5 59
M  V30 64 1 5 60
M  V30 65 1 6 61
M  V30 66 1 6 62
M  V30 67 1 7 63
M  V30 68 1 7 64
M  V30 69 1 8 65
M  V30 70 1 8 66
M  V30 71 1 9 67 CFG=3
M  V30 72 1 10 68
M  V30 73 1 13 69
M  V30 74 1 14 70 CFG=3
M  V30 75 1 16 71
M  V30 76 1 17 72
M  V30 77 1 18 73
M  V30 78 1 19 74
M  V30 79 1 21 75
M  V30 80 1 21 76
M  V30 81 1 22 77 CFG=1
M  V30 82 1 25 78
M  V30 83 1 26 79
M  V30 84 1 32 80
M  V30 85 1 34 81
M  V30 86 1 37 82
M  V30 87 1 39 83
M  V30 88 1 45 84
M  V30 89 1 51 85
M  V30 END BOND
M  V30 END CTAB
M  END
>  <catalyst_id>  (1) 
KDFNIRAUTDSBCF_BRLXWGKWSA_NONE

>  <source_smiles>  (1) 
CN(C)[C@@H]1CCCC[C@H]1NC(=S)N[C@@H]1c2ccccc2C[C@H]1Oc1ccc(C(F)(F)F)cc1NC(=O)Nc1cc(C(F)(F)F)cc(C(F)(F)F)c1

>  <axial_configuration>  (1) 
none

>  <inchikey>  (1) 
KDFNIRAUTDSBCF-BRLXWGKWSA-N

>  <build_source>  (1) 
smiles

>  <rdkit_version>  (1) 
2025.09.6

>  <random_seed>  (1) 
42

>  <generated_at>  (1) 
2026-05-19T12:32:41

$$$$
