catalyst208
     RDKit          3D

  0  0  0  0  0  0  0  0  0  0999 V3000
M  V30 BEGIN CTAB
M  V30 COUNTS 15 15 0 0 0
M  V30 BEGIN ATOM
M  V30 1 C -1.456027 -0.517759 -0.893926 0
M  V30 2 C -0.618405 -0.137719 0.325678 0 CFG=2
M  V30 3 N -0.896090 1.256059 0.707405 0
M  V30 4 C 0.836383 -0.329461 0.083148 0
M  V30 5 N 1.448507 -1.102968 -0.790167 0
M  V30 6 N 2.795890 -0.925388 -0.578691 0
M  V30 7 N 3.014306 -0.064321 0.405725 0
M  V30 8 N 1.795957 0.305334 0.818780 0
M  V30 9 H -2.524863 -0.379776 -0.695673 0
M  V30 10 H -1.193134 0.085769 -1.770820 0
M  V30 11 H -1.303795 -1.569937 -1.160473 0
M  V30 12 H -0.909448 -0.781503 1.164240 0
M  V30 13 H -0.783969 1.846120 -0.120889 0
M  V30 14 H -1.887496 1.333085 0.942739 0
M  V30 15 H 1.682183 0.982466 1.562924 0
M  V30 END ATOM
M  V30 BEGIN BOND
M  V30 1 1 1 2
M  V30 2 1 2 3
M  V30 3 1 2 4
M  V30 4 2 4 5
M  V30 5 1 5 6
M  V30 6 2 6 7
M  V30 7 1 7 8
M  V30 8 1 8 4
M  V30 9 1 1 9
M  V30 10 1 1 10
M  V30 11 1 1 11
M  V30 12 1 2 12 CFG=1
M  V30 13 1 3 13
M  V30 14 1 3 14
M  V30 15 1 8 15
M  V30 END BOND
M  V30 END CTAB
M  END
>  <catalyst_id>  (1) 
NDMDHZMRQFSFOZ_REOHCLBHSA_NONE

>  <source_smiles>  (1) 
C[C@H](N)c1nnn[nH]1

>  <axial_configuration>  (1) 
none

>  <inchikey>  (1) 
NDMDHZMRQFSFOZ-REOHCLBHSA-N

>  <build_source>  (1) 
smiles

>  <rdkit_version>  (1) 
2025.09.6

>  <random_seed>  (1) 
42

>  <generated_at>  (1) 
2026-05-19T12:30:03

$$$$
