catalyst293
     RDKit          3D

  0  0  0  0  0  0  0  0  0  0999 V3000
M  V30 BEGIN CTAB
M  V30 COUNTS 47 50 0 0 0
M  V30 BEGIN ATOM
M  V30 1 C 3.030786 2.994105 0.068927 0
M  V30 2 C 2.955659 1.752180 -0.809913 0
M  V30 3 C 2.996379 0.448816 0.005074 0 CFG=1
M  V30 4 C 1.739464 0.259799 0.887330 0
M  V30 5 N 1.218728 -1.125132 0.813276 0
M  V30 6 C 2.323744 -2.062630 1.118176 0
M  V30 7 C 3.431486 -1.996112 0.055490 0
M  V30 8 C 3.159350 -0.808330 -0.884541 0 CFG=1
M  V30 9 C 1.834276 -1.096987 -1.611384 0
M  V30 10 C 0.723356 -1.409473 -0.570119 0 CFG=2
M  V30 11 C -0.622737 -0.705061 -0.961860 0 CFG=1
M  V30 12 O -1.009793 -1.179202 -2.261947 0
M  V30 13 C -1.813301 -0.854218 -0.020069 0
M  V30 14 C -1.895691 -1.942954 0.855873 0
M  V30 15 C -2.989487 -2.053961 1.691113 0
M  V30 16 N -4.012010 -1.179234 1.709323 0
M  V30 17 C -3.964344 -0.139546 0.866028 0
M  V30 18 C -5.030562 0.750628 0.886650 0
M  V30 19 C -5.089216 1.858061 0.039660 0
M  V30 20 C -4.053196 2.071960 -0.850648 0
M  V30 21 O -4.056377 3.130414 -1.708105 0
M  V30 22 C -2.969298 1.201707 -0.896692 0
M  V30 23 C -2.892843 0.079062 -0.035474 0
M  V30 24 H 2.170820 3.063861 0.741549 0
M  V30 25 H 3.942428 2.990476 0.674850 0
M  V30 26 H 3.042686 3.894514 -0.553561 0
M  V30 27 H 2.044060 1.804764 -1.415402 0
M  V30 28 H 3.802564 1.770428 -1.506349 0
M  V30 29 H 3.875185 0.501073 0.663955 0
M  V30 30 H 1.993422 0.490567 1.930153 0
M  V30 31 H 0.946428 0.969309 0.626733 0
M  V30 32 H 2.736973 -1.837449 2.109568 0
M  V30 33 H 1.935483 -3.086190 1.189123 0
M  V30 34 H 4.407687 -1.882546 0.541296 0
M  V30 35 H 3.461173 -2.930006 -0.518688 0
M  V30 36 H 3.979823 -0.690038 -1.600130 0
M  V30 37 H 1.960669 -1.961948 -2.274850 0
M  V30 38 H 1.566024 -0.249005 -2.250449 0
M  V30 39 H 0.529501 -2.490250 -0.640308 0
M  V30 40 H -0.399404 0.361608 -1.068836 0
M  V30 41 H -1.975697 -1.294670 -2.266097 0
M  V30 42 H -1.119604 -2.698135 0.912593 0
M  V30 43 H -3.073931 -2.879577 2.392115 0
M  V30 44 H -5.844414 0.571705 1.586345 0
M  V30 45 H -5.943811 2.524246 0.092832 0
M  V30 46 H -4.864149 3.650367 -1.561742 0
M  V30 47 H -2.188287 1.413004 -1.621972 0
M  V30 END ATOM
M  V30 BEGIN BOND
M  V30 1 1 1 2
M  V30 2 1 2 3
M  V30 3 1 3 4
M  V30 4 1 4 5
M  V30 5 1 5 6
M  V30 6 1 6 7
M  V30 7 1 7 8
M  V30 8 1 8 9
M  V30 9 1 9 10
M  V30 10 1 10 11
M  V30 11 1 11 12
M  V30 12 1 11 13
M  V30 13 2 13 14
M  V30 14 1 14 15
M  V30 15 2 15 16
M  V30 16 1 16 17
M  V30 17 2 17 18
M  V30 18 1 18 19
M  V30 19 2 19 20
M  V30 20 1 20 21
M  V30 21 1 20 22
M  V30 22 2 22 23
M  V30 23 1 8 3
M  V30 24 1 23 13
M  V30 25 1 10 5
M  V30 26 1 23 17
M  V30 27 1 1 24
M  V30 28 1 1 25
M  V30 29 1 1 26
M  V30 30 1 2 27
M  V30 31 1 2 28
M  V30 32 1 3 29 CFG=1
M  V30 33 1 4 30
M  V30 34 1 4 31
M  V30 35 1 6 32
M  V30 36 1 6 33
M  V30 37 1 7 34
M  V30 38 1 7 35
M  V30 39 1 8 36 CFG=3
M  V30 40 1 9 37
M  V30 41 1 9 38
M  V30 42 1 10 39 CFG=1
M  V30 43 1 11 40 CFG=3
M  V30 44 1 12 41
M  V30 45 1 14 42
M  V30 46 1 15 43
M  V30 47 1 18 44
M  V30 48 1 19 45
M  V30 49 1 21 46
M  V30 50 1 22 47
M  V30 END BOND
M  V30 END CTAB
M  END
>  <catalyst_id>  (1) 
RASAUPYEBCYZRS_WXPXUSHHSA_NONE

>  <source_smiles>  (1) 
CC[C@H]1CN2CC[C@H]1C[C@@H]2[C@@H](O)c1ccnc2ccc(O)cc12

>  <axial_configuration>  (1) 
none

>  <inchikey>  (1) 
RASAUPYEBCYZRS-WXPXUSHHSA-N

>  <build_source>  (1) 
smiles

>  <rdkit_version>  (1) 
2025.09.6

>  <random_seed>  (1) 
42

>  <generated_at>  (1) 
2026-05-19T12:39:48

$$$$
