catalyst164
     RDKit          3D

  0  0  0  0  0  0  0  0  0  0999 V3000
M  V30 BEGIN CTAB
M  V30 COUNTS 60 62 0 0 0
M  V30 BEGIN ATOM
M  V30 1 C 1.990801 -2.023702 -2.213723 0
M  V30 2 C 0.460549 -2.193529 -2.076356 0
M  V30 3 C -0.167256 -1.716395 -3.404622 0
M  V30 4 C 0.159275 -3.693876 -1.894999 0
M  V30 5 C -0.080736 -1.325262 -0.879024 0 CFG=1
M  V30 6 C -1.619146 -1.397808 -0.676651 0
M  V30 7 P -2.466572 0.256567 -0.811745 0
M  V30 8 C -1.697246 1.212243 0.534587 0
M  V30 9 C -1.296492 2.531655 0.270892 0
M  V30 10 C -0.698058 3.310952 1.264066 0
M  V30 11 C -0.480464 2.777394 2.531299 0
M  V30 12 C -0.873625 1.471037 2.809241 0
M  V30 13 C -1.485252 0.696488 1.820179 0
M  V30 14 C -4.134661 -0.105744 -0.146531 0
M  V30 15 C -4.809973 0.811360 0.675346 0
M  V30 16 C -6.091778 0.539552 1.163984 0
M  V30 17 C -6.730953 -0.648261 0.824471 0
M  V30 18 C -6.092760 -1.558553 -0.011764 0
M  V30 19 C -4.810215 -1.285424 -0.498837 0
M  V30 20 N 0.574081 -1.705975 0.392696 0
M  V30 21 C 1.640133 -1.135512 1.033040 0
M  V30 22 S 2.340362 -2.041696 2.249588 0
M  V30 23 N 1.965903 0.128786 0.620594 0
M  V30 24 C 3.162240 0.861480 0.767034 0
M  V30 25 C 4.417567 0.273872 0.947788 0
M  V30 26 C 5.568835 1.063758 1.056326 0
M  V30 27 C 5.463991 2.455324 0.964892 0
M  V30 28 N 6.667355 3.288311 1.076563 0 CHG=1
M  V30 29 O 6.524853 4.517773 1.007279 0
M  V30 30 O 7.754931 2.714829 1.231033 0 CHG=-1
M  V30 31 C 4.219262 3.056936 0.753378 0
M  V30 32 C 3.078129 2.255393 0.645827 0
M  V30 33 H 2.366927 -2.540676 -3.104398 0
M  V30 34 H 2.526694 -2.441020 -1.355453 0
M  V30 35 H 2.264920 -0.966931 -2.306122 0
M  V30 36 H 0.001461 -0.644349 -3.556362 0
M  V30 37 H 0.271950 -2.243438 -4.259828 0
M  V30 38 H -1.245757 -1.895874 -3.442654 0
M  V30 39 H -0.914445 -3.892736 -1.826615 0
M  V30 40 H 0.541098 -4.273432 -2.743811 0
M  V30 41 H 0.632338 -4.094413 -0.992375 0
M  V30 42 H 0.212489 -0.295538 -1.107497 0
M  V30 43 H -2.080139 -2.035716 -1.434099 0
M  V30 44 H -1.862063 -1.853878 0.290318 0
M  V30 45 H -1.459073 2.972325 -0.711408 0
M  V30 46 H -0.405504 4.335477 1.047937 0
M  V30 47 H -0.012513 3.380027 3.305797 0
M  V30 48 H -0.709886 1.052149 3.799472 0
M  V30 49 H -1.795452 -0.314267 2.075147 0
M  V30 50 H -4.351447 1.759168 0.949362 0
M  V30 51 H -6.589763 1.262086 1.805455 0
M  V30 52 H -7.728186 -0.858388 1.201595 0
M  V30 53 H -6.594810 -2.480452 -0.293940 0
M  V30 54 H -4.358201 -2.011263 -1.169339 0
M  V30 55 H 0.377375 -2.640232 0.736681 0
M  V30 56 H 1.151903 0.683931 0.383323 0
M  V30 57 H 4.539478 -0.804518 0.977158 0
M  V30 58 H 6.530317 0.575400 1.202281 0
M  V30 59 H 4.118597 4.136827 0.668642 0
M  V30 60 H 2.118610 2.737759 0.477802 0
M  V30 END ATOM
M  V30 BEGIN BOND
M  V30 1 1 1 2
M  V30 2 1 2 3
M  V30 3 1 2 4
M  V30 4 1 2 5
M  V30 5 1 5 6
M  V30 6 1 6 7
M  V30 7 1 7 8
M  V30 8 2 8 9
M  V30 9 1 9 10
M  V30 10 2 10 11
M  V30 11 1 11 12
M  V30 12 2 12 13
M  V30 13 1 7 14
M  V30 14 2 14 15
M  V30 15 1 15 16
M  V30 16 2 16 17
M  V30 17 1 17 18
M  V30 18 2 18 19
M  V30 19 1 5 20
M  V30 20 1 20 21
M  V30 21 2 21 22
M  V30 22 1 21 23
M  V30 23 1 23 24
M  V30 24 2 24 25
M  V30 25 1 25 26
M  V30 26 2 26 27
M  V30 27 1 27 28
M  V30 28 2 28 29
M  V30 29 1 28 30
M  V30 30 1 27 31
M  V30 31 2 31 32
M  V30 32 1 13 8
M  V30 33 1 19 14
M  V30 34 1 32 24
M  V30 35 1 1 33
M  V30 36 1 1 34
M  V30 37 1 1 35
M  V30 38 1 3 36
M  V30 39 1 3 37
M  V30 40 1 3 38
M  V30 41 1 4 39
M  V30 42 1 4 40
M  V30 43 1 4 41
M  V30 44 1 5 42 CFG=3
M  V30 45 1 6 43
M  V30 46 1 6 44
M  V30 47 1 9 45
M  V30 48 1 10 46
M  V30 49 1 11 47
M  V30 50 1 12 48
M  V30 51 1 13 49
M  V30 52 1 15 50
M  V30 53 1 16 51
M  V30 54 1 17 52
M  V30 55 1 18 53
M  V30 56 1 19 54
M  V30 57 1 20 55
M  V30 58 1 23 56
M  V30 59 1 25 57
M  V30 60 1 26 58
M  V30 61 1 31 59
M  V30 62 1 32 60
M  V30 END BOND
M  V30 END CTAB
M  END
>  <catalyst_id>  (1) 
KYTPUGFJQHZZSS_HSZRJFAPSA_NONE

>  <source_smiles>  (1) 
CC(C)(C)[C@@H](CP(c1ccccc1)c1ccccc1)NC(=S)Nc1ccc([N+](=O)[O-])cc1

>  <axial_configuration>  (1) 
none

>  <inchikey>  (1) 
KYTPUGFJQHZZSS-HSZRJFAPSA-N

>  <build_source>  (1) 
smiles

>  <rdkit_version>  (1) 
2025.09.6

>  <random_seed>  (1) 
42

>  <generated_at>  (1) 
2026-05-19T12:34:35

$$$$
