catalyst301
     RDKit          3D

  0  0  0  0  0  0  0  0  0  0999 V3000
M  V30 BEGIN CTAB
M  V30 COUNTS 49 52 0 0 0
M  V30 BEGIN ATOM
M  V30 1 C -5.818955 -0.217934 -0.921001 0
M  V30 2 C -5.241758 -0.132630 0.284651 0
M  V30 3 C -4.000829 0.647080 0.667265 0 CFG=1
M  V30 4 C -3.020225 -0.226550 1.497880 0
M  V30 5 N -1.606978 -0.038993 1.084324 0
M  V30 6 C -1.280615 1.400421 1.153543 0
M  V30 7 C -2.137995 2.225889 0.184044 0
M  V30 8 C -3.190384 1.312556 -0.474314 0 CFG=1
M  V30 9 C -2.404576 0.250557 -1.267689 0
M  V30 10 C -1.465649 -0.544634 -0.317274 0 CFG=1
M  V30 11 C 0.018583 -0.584533 -0.863794 0 CFG=2
M  V30 12 N 0.058292 -1.251740 -2.180071 0
M  V30 13 C 1.063994 -1.231161 0.046704 0
M  V30 14 C 0.703807 -2.299219 0.879593 0
M  V30 15 C 1.663615 -2.879517 1.684036 0
M  V30 16 N 2.952439 -2.495082 1.709814 0
M  V30 17 C 3.322952 -1.487394 0.907919 0
M  V30 18 C 4.656508 -1.106384 0.937696 0
M  V30 19 C 5.157451 -0.077053 0.135446 0
M  V30 20 C 4.305185 0.594341 -0.727201 0
M  V30 21 O 4.648826 1.611950 -1.572236 0
M  V30 22 C 6.009195 2.027592 -1.558481 0
M  V30 23 C 2.957307 0.225449 -0.769544 0
M  V30 24 C 2.429740 -0.812213 0.042698 0
M  V30 25 H -5.427834 0.287758 -1.796955 0
M  V30 26 H -6.722702 -0.805064 -1.058123 0
M  V30 27 H -5.727259 -0.658892 1.107191 0
M  V30 28 H -4.357988 1.453581 1.324654 0
M  V30 29 H -3.117708 0.031049 2.560929 0
M  V30 30 H -3.274538 -1.293159 1.438717 0
M  V30 31 H -0.216215 1.565503 0.951157 0
M  V30 32 H -1.432116 1.759069 2.179827 0
M  V30 33 H -2.629237 3.044771 0.722768 0
M  V30 34 H -1.502196 2.681079 -0.585014 0
M  V30 35 H -3.829677 1.904204 -1.138079 0
M  V30 36 H -3.088874 -0.444072 -1.766701 0
M  V30 37 H -1.837527 0.754181 -2.060098 0
M  V30 38 H -1.820884 -1.585691 -0.318283 0
M  V30 39 H 0.296501 0.462420 -1.022211 0
M  V30 40 H 1.017293 -1.227801 -2.527038 0
M  V30 41 H -0.156691 -2.239750 -2.048834 0
M  V30 42 H -0.311716 -2.675675 0.925915 0
M  V30 43 H 1.411191 -3.698095 2.351914 0
M  V30 44 H 5.332583 -1.631726 1.609318 0
M  V30 45 H 6.211834 0.163867 0.213300 0
M  V30 46 H 6.116623 2.843404 -2.279808 0
M  V30 47 H 6.672992 1.215384 -1.872739 0
M  V30 48 H 6.294095 2.413478 -0.574092 0
M  V30 49 H 2.320126 0.769378 -1.461893 0
M  V30 END ATOM
M  V30 BEGIN BOND
M  V30 1 2 1 2
M  V30 2 1 2 3
M  V30 3 1 3 4
M  V30 4 1 4 5
M  V30 5 1 5 6
M  V30 6 1 6 7
M  V30 7 1 7 8
M  V30 8 1 8 9
M  V30 9 1 9 10
M  V30 10 1 10 11
M  V30 11 1 11 12
M  V30 12 1 11 13
M  V30 13 2 13 14
M  V30 14 1 14 15
M  V30 15 2 15 16
M  V30 16 1 16 17
M  V30 17 2 17 18
M  V30 18 1 18 19
M  V30 19 2 19 20
M  V30 20 1 20 21
M  V30 21 1 21 22
M  V30 22 1 20 23
M  V30 23 2 23 24
M  V30 24 1 8 3
M  V30 25 1 24 13
M  V30 26 1 10 5
M  V30 27 1 24 17
M  V30 28 1 1 25
M  V30 29 1 1 26
M  V30 30 1 2 27
M  V30 31 1 3 28 CFG=1
M  V30 32 1 4 29
M  V30 33 1 4 30
M  V30 34 1 6 31
M  V30 35 1 6 32
M  V30 36 1 7 33
M  V30 37 1 7 34
M  V30 38 1 8 35 CFG=3
M  V30 39 1 9 36
M  V30 40 1 9 37
M  V30 41 1 10 38 CFG=1
M  V30 42 1 11 39 CFG=3
M  V30 43 1 12 40
M  V30 44 1 12 41
M  V30 45 1 14 42
M  V30 46 1 15 43
M  V30 47 1 18 44
M  V30 48 1 19 45
M  V30 49 1 22 46
M  V30 50 1 22 47
M  V30 51 1 22 48
M  V30 52 1 23 49
M  V30 END BOND
M  V30 END CTAB
M  END
>  <catalyst_id>  (1) 
RIEKOKLABHBCGI_WZBLMQSHSA_NONE

>  <source_smiles>  (1) 
C=C[C@H]1CN2CC[C@H]1C[C@H]2[C@H](N)c1ccnc2ccc(OC)cc12

>  <axial_configuration>  (1) 
none

>  <inchikey>  (1) 
RIEKOKLABHBCGI-WZBLMQSHSA-N

>  <build_source>  (1) 
smiles

>  <rdkit_version>  (1) 
2025.09.6

>  <random_seed>  (1) 
42

>  <generated_at>  (1) 
2026-05-19T12:33:40

$$$$
