catalyst358
     RDKit          3D

  0  0  0  0  0  0  0  0  0  0999 V3000
M  V30 BEGIN CTAB
M  V30 COUNTS 62 64 0 0 0
M  V30 BEGIN ATOM
M  V30 1 F -5.950589 2.622329 -4.768338 0
M  V30 2 C -5.473171 1.382313 -5.059988 0
M  V30 3 F -4.645460 1.538871 -6.129468 0
M  V30 4 F -6.537253 0.664005 -5.511801 0
M  V30 5 C -4.789313 0.743091 -3.874237 0
M  V30 6 C -3.420310 0.959542 -3.643048 0
M  V30 7 C -2.776305 0.405809 -2.530947 0
M  V30 8 N -1.397426 0.664282 -2.392868 0
M  V30 9 C -0.538401 0.477399 -1.345000 0
M  V30 10 S 1.094580 0.436540 -1.688977 0
M  V30 11 N -1.095974 0.391624 -0.103173 0
M  V30 12 C -0.412052 0.199003 1.191699 0 CFG=2
M  V30 13 C -1.390118 -0.431999 2.197243 0
M  V30 14 C -2.489519 0.530869 2.644725 0
M  V30 15 C -1.924170 1.846801 3.166578 0
M  V30 16 C -0.941974 2.487241 2.185073 0
M  V30 17 C 0.178717 1.528229 1.744900 0 CFG=1
M  V30 18 N 1.108247 1.304176 2.863413 0
M  V30 19 C 2.337645 0.705515 2.882074 0
M  V30 20 S 2.973046 0.423085 4.401052 0
M  V30 21 N 2.893004 0.447134 1.656495 0
M  V30 22 C 3.998983 -0.354278 1.291495 0
M  V30 23 C 4.606448 -0.077485 0.059897 0
M  V30 24 C 5.702603 -0.824864 -0.401422 0
M  V30 25 C 6.338333 -0.508428 -1.733432 0
M  V30 26 F 6.210365 0.799284 -2.092037 0
M  V30 27 F 7.674952 -0.770212 -1.757537 0
M  V30 28 F 5.796740 -1.232556 -2.750127 0
M  V30 29 C 6.171349 -1.890150 0.379699 0
M  V30 30 C 5.556276 -2.208832 1.599426 0
M  V30 31 C 6.059525 -3.356291 2.442893 0
M  V30 32 F 5.063920 -4.017101 3.095678 0
M  V30 33 F 6.936801 -2.950705 3.400353 0
M  V30 34 F 6.714399 -4.303463 1.713678 0
M  V30 35 C 4.471695 -1.430675 2.043286 0
M  V30 36 C -3.507056 -0.410229 -1.664541 0
M  V30 37 C -4.882320 -0.627766 -1.859324 0
M  V30 38 C -5.646359 -1.517558 -0.906807 0
M  V30 39 F -5.240583 -1.370023 0.385253 0
M  V30 40 F -5.500809 -2.836837 -1.201057 0
M  V30 41 F -6.985607 -1.274040 -0.906212 0
M  V30 42 C -5.514570 -0.043408 -2.966796 0
M  V30 43 H -2.861439 1.583395 -4.340793 0
M  V30 44 H -0.918060 0.959364 -3.239009 0
M  V30 45 H -2.005769 0.830099 -0.046370 0
M  V30 46 H 0.394273 -0.522516 1.020044 0
M  V30 47 H -1.852331 -1.326108 1.761062 0
M  V30 48 H -0.832287 -0.766767 3.080840 0
M  V30 49 H -3.092516 0.056596 3.427739 0
M  V30 50 H -3.171536 0.732774 1.810407 0
M  V30 51 H -2.746436 2.543749 3.365962 0
M  V30 52 H -1.428013 1.670866 4.128256 0
M  V30 53 H -0.509830 3.384929 2.644124 0
M  V30 54 H -1.496336 2.824925 1.300437 0
M  V30 55 H 0.752683 2.036047 0.963222 0
M  V30 56 H 0.742011 1.437869 3.800820 0
M  V30 57 H 2.552388 1.044131 0.913442 0
M  V30 58 H 4.241357 0.745645 -0.553837 0
M  V30 59 H 7.017658 -2.484001 0.030044 0
M  V30 60 H 3.985378 -1.722568 2.969979 0
M  V30 61 H -3.019080 -0.935684 -0.846034 0
M  V30 62 H -6.580407 -0.212990 -3.132078 0
M  V30 END ATOM
M  V30 BEGIN BOND
M  V30 1 1 1 2
M  V30 2 1 2 3
M  V30 3 1 2 4
M  V30 4 1 2 5
M  V30 5 2 5 6
M  V30 6 1 6 7
M  V30 7 1 7 8
M  V30 8 1 8 9
M  V30 9 2 9 10
M  V30 10 1 9 11
M  V30 11 1 11 12
M  V30 12 1 12 13
M  V30 13 1 13 14
M  V30 14 1 14 15
M  V30 15 1 15 16
M  V30 16 1 16 17
M  V30 17 1 17 18
M  V30 18 1 18 19
M  V30 19 2 19 20
M  V30 20 1 19 21
M  V30 21 1 21 22
M  V30 22 2 22 23
M  V30 23 1 23 24
M  V30 24 1 24 25
M  V30 25 1 25 26
M  V30 26 1 25 27
M  V30 27 1 25 28
M  V30 28 2 24 29
M  V30 29 1 29 30
M  V30 30 1 30 31
M  V30 31 1 31 32
M  V30 32 1 31 33
M  V30 33 1 31 34
M  V30 34 2 30 35
M  V30 35 2 7 36
M  V30 36 1 36 37
M  V30 37 1 37 38
M  V30 38 1 38 39
M  V30 39 1 38 40
M  V30 40 1 38 41
M  V30 41 2 37 42
M  V30 42 1 42 5
M  V30 43 1 17 12
M  V30 44 1 35 22
M  V30 45 1 6 43
M  V30 46 1 8 44
M  V30 47 1 11 45
M  V30 48 1 12 46 CFG=3
M  V30 49 1 13 47
M  V30 50 1 13 48
M  V30 51 1 14 49
M  V30 52 1 14 50
M  V30 53 1 15 51
M  V30 54 1 15 52
M  V30 55 1 16 53
M  V30 56 1 16 54
M  V30 57 1 17 55 CFG=3
M  V30 58 1 18 56
M  V30 59 1 21 57
M  V30 60 1 23 58
M  V30 61 1 29 59
M  V30 62 1 35 60
M  V30 63 1 36 61
M  V30 64 1 42 62
M  V30 END BOND
M  V30 END CTAB
M  END
>  <catalyst_id>  (1) 
VALSAKIMMYEMHC_QZTJIDSGSA_NONE

>  <source_smiles>  (1) 
FC(F)(F)c1cc(NC(=S)N[C@@H]2CCCC[C@H]2NC(=S)Nc2cc(C(F)(F)F)cc(C(F)(F)F)c2)cc(C(F)(F)F)c1

>  <axial_configuration>  (1) 
none

>  <inchikey>  (1) 
VALSAKIMMYEMHC-QZTJIDSGSA-N

>  <build_source>  (1) 
smiles

>  <rdkit_version>  (1) 
2025.09.6

>  <random_seed>  (1) 
42

>  <generated_at>  (1) 
2026-05-19T12:34:41

$$$$
