catalyst58
     RDKit          3D

  0  0  0  0  0  0  0  0  0  0999 V3000
M  V30 BEGIN CTAB
M  V30 COUNTS 134 145 0 0 0
M  V30 BEGIN ATOM
M  V30 1 C 3.543316 -3.244358 2.407606 0
M  V30 2 C 3.167116 -3.117060 1.128223 0
M  V30 3 C 4.035039 -2.827462 -0.081368 0 CFG=1
M  V30 4 C 3.383487 -1.744211 -0.979775 0
M  V30 5 N 4.476689 -0.767920 -1.525730 0 CFG=2 CHG=1
M  V30 6 C 3.801216 0.111224 -2.643356 0
M  V30 7 C 2.734388 1.119930 -2.253014 0
M  V30 8 C 3.090269 2.482480 -2.178019 0
M  V30 9 C 2.198002 3.467361 -1.753179 0
M  V30 10 C 2.626779 4.803656 -1.623722 0
M  V30 11 C 1.762221 5.796759 -1.169619 0
M  V30 12 C 0.454844 5.465844 -0.849924 0
M  V30 13 C 0.020968 4.145501 -0.994696 0
M  V30 14 C 0.873687 3.107585 -1.451993 0
M  V30 15 C 0.458113 1.741334 -1.651660 0
M  V30 16 C -0.985968 1.382196 -1.333879 0
M  V30 17 C -2.013383 1.583516 -2.334044 0
M  V30 18 O -1.823203 2.164783 -3.462026 0 CHG=-1
M  V30 19 C -3.305990 1.121495 -1.979285 0
M  V30 20 C -4.427270 1.237917 -2.984940 0
M  V30 21 N -5.227483 2.588028 -3.030578 0 CFG=1 CHG=1
M  V30 22 C -4.533955 3.687809 -2.195913 0
M  V30 23 C -5.403651 4.948258 -2.181677 0
M  V30 24 C -6.654284 4.758899 -3.044691 0 CFG=1
M  V30 25 C -6.167969 4.432074 -4.460820 0
M  V30 26 C -5.424731 3.072136 -4.516184 0 CFG=1
M  V30 27 C -4.143115 3.135244 -5.436472 0 CFG=2
M  V30 28 O -3.202745 4.082441 -4.930194 0
M  V30 29 C -4.524982 3.495259 -6.877910 0
M  V30 30 C -4.258709 4.782427 -7.364604 0
M  V30 31 C -4.665422 5.115232 -8.639660 0
M  V30 32 N -5.322250 4.272070 -9.459143 0
M  V30 33 C -5.555165 3.025226 -9.025353 0
M  V30 34 C -6.210392 2.156022 -9.885795 0
M  V30 35 C -6.499786 0.833746 -9.534254 0
M  V30 36 C -6.113439 0.355942 -8.291657 0
M  V30 37 O -6.331558 -0.903414 -7.808332 0
M  V30 38 C -6.779940 -1.877032 -8.744163 0
M  V30 39 C -5.451411 1.215802 -7.411535 0
M  V30 40 C -5.171339 2.565621 -7.743781 0
M  V30 41 C -7.472379 3.598040 -2.449231 0 CFG=1
M  V30 42 C -8.771760 3.371103 -3.190520 0
M  V30 43 C -9.982837 3.547298 -2.646149 0
M  V30 44 C -6.605643 2.323195 -2.410768 0
M  V30 45 C -3.589649 0.567409 -0.715019 0
M  V30 46 C -2.604467 0.433652 0.261932 0
M  V30 47 C -2.928762 -0.102718 1.523413 0
M  V30 48 C -1.959657 -0.253759 2.512958 0
M  V30 49 C -0.652424 0.124122 2.249095 0
M  V30 50 C -0.325190 0.653629 0.998044 0
M  V30 51 C -1.284973 0.829674 -0.032151 0
M  V30 52 C 1.395156 0.701317 -2.042229 0
M  V30 53 O 1.065770 -0.526647 -2.207297 0 CHG=-1
M  V30 54 C 5.554574 -1.607817 -2.189114 0
M  V30 55 C 6.262707 -2.459337 -1.139956 0
M  V30 56 C 5.497922 -2.425565 0.190557 0 CFG=1
M  V30 57 C 5.561966 -0.985608 0.719708 0
M  V30 58 C 4.997591 0.037715 -0.297996 0 CFG=1
M  V30 59 C 6.032668 1.166225 -0.642292 0 CFG=2
M  V30 60 O 7.212322 0.665819 -1.273237 0
M  V30 61 C 6.329905 2.085845 0.547033 0
M  V30 62 C 5.334385 3.034388 0.844984 0
M  V30 63 C 5.524513 3.918939 1.884145 0
M  V30 64 N 6.627399 3.930002 2.648747 0
M  V30 65 C 7.582088 3.023748 2.403988 0
M  V30 66 C 8.694768 3.058070 3.228509 0
M  V30 67 C 9.747736 2.156527 3.084534 0
M  V30 68 C 9.698166 1.184947 2.097092 0
M  V30 69 O 10.778507 0.349922 2.059590 0
M  V30 70 C 10.790114 -0.659984 1.058984 0
M  V30 71 C 8.585266 1.136619 1.254447 0
M  V30 72 C 7.500917 2.054998 1.370420 0
M  V30 73 H 4.570709 -3.148831 2.738336 0
M  V30 74 H 2.801840 -3.459830 3.173237 0
M  V30 75 H 2.104403 -3.250350 0.907142 0
M  V30 76 H 4.045165 -3.766188 -0.654600 0
M  V30 77 H 2.677096 -1.147321 -0.397597 0
M  V30 78 H 2.914895 -2.233137 -1.839647 0
M  V30 79 H 4.630905 0.641370 -3.128365 0
M  V30 80 H 3.426643 -0.581363 -3.409005 0
M  V30 81 H 4.087959 2.790543 -2.473702 0
M  V30 82 H 3.645765 5.081457 -1.880649 0
M  V30 83 H 2.104356 6.823027 -1.079387 0
M  V30 84 H -0.240387 6.226513 -0.509210 0
M  V30 85 H -1.018732 3.917755 -0.770646 0
M  V30 86 H -5.162376 0.448446 -2.776383 0
M  V30 87 H -4.092535 0.983884 -3.991820 0
M  V30 88 H -4.426937 3.319522 -1.169998 0
M  V30 89 H -3.552596 3.915403 -2.600124 0
M  V30 90 H -4.815958 5.801894 -2.540919 0
M  V30 91 H -5.685659 5.191378 -1.149884 0
M  V30 92 H -7.241891 5.684542 -3.053417 0
M  V30 93 H -7.008538 4.413159 -5.165055 0
M  V30 94 H -5.523669 5.252499 -4.798184 0
M  V30 95 H -6.113509 2.330389 -4.938146 0
M  V30 96 H -3.628304 2.175200 -5.504134 0
M  V30 97 H -2.533606 3.524801 -4.433295 0
M  V30 98 H -3.737588 5.519864 -6.759960 0
M  V30 99 H -4.471103 6.103225 -9.046680 0
M  V30 100 H -6.503998 2.520758 -10.868058 0
M  V30 101 H -7.021607 0.214470 -10.255853 0
M  V30 102 H -6.804619 -2.844508 -8.232756 0
M  V30 103 H -7.796298 -1.653904 -9.083665 0
M  V30 104 H -6.090423 -1.964105 -9.590803 0
M  V30 105 H -5.130150 0.796168 -6.461724 0
M  V30 106 H -7.719046 3.855055 -1.409220 0
M  V30 107 H -8.721111 3.044479 -4.228238 0
M  V30 108 H -10.884245 3.372272 -3.227964 0
M  V30 109 H -10.114269 3.877304 -1.619594 0
M  V30 110 H -7.065137 1.493778 -2.962406 0
M  V30 111 H -6.439417 2.000528 -1.375380 0
M  V30 112 H -4.599402 0.231302 -0.497090 0
M  V30 113 H -3.946609 -0.415326 1.741030 0
M  V30 114 H -2.223873 -0.673159 3.478605 0
M  V30 115 H 0.120442 0.003475 3.001496 0
M  V30 116 H 0.710800 0.925428 0.809604 0
M  V30 117 H 5.060561 -2.247487 -2.931273 0
M  V30 118 H 6.246290 -0.955196 -2.728458 0
M  V30 119 H 6.352802 -3.489650 -1.505025 0
M  V30 120 H 7.288849 -2.099828 -0.994844 0
M  V30 121 H 5.979591 -3.112343 0.895286 0
M  V30 122 H 6.600177 -0.766064 0.977075 0
M  V30 123 H 5.006665 -0.890852 1.659854 0
M  V30 124 H 4.108370 0.506288 0.142993 0
M  V30 125 H 5.600834 1.810669 -1.406579 0
M  V30 126 H 7.787042 1.439857 -1.427680 0
M  V30 127 H 4.407161 3.093098 0.282612 0
M  V30 128 H 4.771935 4.661836 2.134394 0
M  V30 129 H 8.744063 3.809316 4.014079 0
M  V30 130 H 10.602799 2.214223 3.753392 0
M  V30 131 H 9.959038 -1.359670 1.195637 0
M  V30 132 H 11.721362 -1.224854 1.164347 0
M  V30 133 H 10.777380 -0.221879 0.055570 0
M  V30 134 H 8.547010 0.358684 0.504174 0
M  V30 END ATOM
M  V30 BEGIN BOND
M  V30 1 2 1 2
M  V30 2 1 2 3
M  V30 3 1 3 4
M  V30 4 1 4 5
M  V30 5 1 5 6 CFG=3
M  V30 6 1 6 7
M  V30 7 2 7 8
M  V30 8 1 8 9
M  V30 9 2 9 10
M  V30 10 1 10 11
M  V30 11 2 11 12
M  V30 12 1 12 13
M  V30 13 2 13 14
M  V30 14 1 14 15
M  V30 15 1 15 16
M  V30 16 2 16 17
M  V30 17 1 17 18
M  V30 18 1 17 19
M  V30 19 1 19 20
M  V30 20 1 21 20 CFG=3
M  V30 21 1 21 22
M  V30 22 1 22 23
M  V30 23 1 23 24
M  V30 24 1 24 25
M  V30 25 1 25 26
M  V30 26 1 26 27
M  V30 27 1 27 28
M  V30 28 1 27 29
M  V30 29 2 29 30
M  V30 30 1 30 31
M  V30 31 2 31 32
M  V30 32 1 32 33
M  V30 33 2 33 34
M  V30 34 1 34 35
M  V30 35 2 35 36
M  V30 36 1 36 37
M  V30 37 1 37 38
M  V30 38 1 36 39
M  V30 39 2 39 40
M  V30 40 1 24 41
M  V30 41 1 41 42
M  V30 42 2 42 43
M  V30 43 1 41 44
M  V30 44 2 19 45
M  V30 45 1 45 46
M  V30 46 2 46 47
M  V30 47 1 47 48
M  V30 48 2 48 49
M  V30 49 1 49 50
M  V30 50 2 50 51
M  V30 51 2 15 52
M  V30 52 1 52 53
M  V30 53 1 5 54
M  V30 54 1 54 55
M  V30 55 1 55 56
M  V30 56 1 56 57
M  V30 57 1 57 58
M  V30 58 1 58 59
M  V30 59 1 59 60
M  V30 60 1 59 61
M  V30 61 2 61 62
M  V30 62 1 62 63
M  V30 63 2 63 64
M  V30 64 1 64 65
M  V30 65 2 65 66
M  V30 66 1 66 67
M  V30 67 2 67 68
M  V30 68 1 68 69
M  V30 69 1 69 70
M  V30 70 1 68 71
M  V30 71 2 71 72
M  V30 72 1 56 3
M  V30 73 1 72 61
M  V30 74 1 58 5
M  V30 75 1 72 65
M  V30 76 1 52 7
M  V30 77 1 14 9
M  V30 78 1 51 16
M  V30 79 1 26 21
M  V30 80 1 40 29
M  V30 81 1 51 46
M  V30 82 1 44 21
M  V30 83 1 40 33
M  V30 84 1 1 73
M  V30 85 1 1 74
M  V30 86 1 2 75
M  V30 87 1 3 76 CFG=3
M  V30 88 1 4 77
M  V30 89 1 4 78
M  V30 90 1 6 79
M  V30 91 1 6 80
M  V30 92 1 8 81
M  V30 93 1 10 82
M  V30 94 1 11 83
M  V30 95 1 12 84
M  V30 96 1 13 85
M  V30 97 1 20 86
M  V30 98 1 20 87
M  V30 99 1 22 88
M  V30 100 1 22 89
M  V30 101 1 23 90
M  V30 102 1 23 91
M  V30 103 1 24 92 CFG=3
M  V30 104 1 25 93
M  V30 105 1 25 94
M  V30 106 1 26 95 CFG=3
M  V30 107 1 27 96 CFG=3
M  V30 108 1 28 97
M  V30 109 1 30 98
M  V30 110 1 31 99
M  V30 111 1 34 100
M  V30 112 1 35 101
M  V30 113 1 38 102
M  V30 114 1 38 103
M  V30 115 1 38 104
M  V30 116 1 39 105
M  V30 117 1 41 106 CFG=1
M  V30 118 1 42 107
M  V30 119 1 43 108
M  V30 120 1 43 109
M  V30 121 1 44 110
M  V30 122 1 44 111
M  V30 123 1 45 112
M  V30 124 1 47 113
M  V30 125 1 48 114
M  V30 126 1 49 115
M  V30 127 1 50 116
M  V30 128 1 54 117
M  V30 129 1 54 118
M  V30 130 1 55 119
M  V30 131 1 55 120
M  V30 132 1 56 121 CFG=1
M  V30 133 1 57 122
M  V30 134 1 57 123
M  V30 135 1 58 124 CFG=1
M  V30 136 1 59 125 CFG=3
M  V30 137 1 60 126
M  V30 138 1 62 127
M  V30 139 1 63 128
M  V30 140 1 66 129
M  V30 141 1 67 130
M  V30 142 1 70 131
M  V30 143 1 70 132
M  V30 144 1 70 133
M  V30 145 1 71 134
M  V30 END BOND
M  V30 END CTAB
M  END
>  <catalyst_id>  (1) 
FSDYZSWGRCPKAO_JPVNXDAOSA_R

>  <source_smiles>  (1) 
C=C[C@H]1C[N+]2(Cc3cc4ccccc4c(-c4c([O-])c(C[N+]56CC[C@@H](C[C@H]5[C@H](O)c5ccnc7ccc(OC)cc57)[C@@H](C=C)C6)cc5ccccc45)c3[O-])CC[C@H]1C[C@H]2[C@H](O)c1ccnc2ccc(OC)cc12

>  <axial_configuration>  (1) 
R

>  <inchikey>  (1) 
FSDYZSWGRCPKAO-JPVNXDAOSA-N

>  <build_source>  (1) 
smiles+axial_free

>  <final_biaryl_angle_deg>  (1) 
85.21

>  <rdkit_version>  (1) 
2025.09.6

>  <random_seed>  (1) 
42

>  <generated_at>  (1) 
2026-05-19T12:32:08

$$$$
