catalyst41
     RDKit          3D

  0  0  0  0  0  0  0  0  0  0999 V3000
M  V30 BEGIN CTAB
M  V30 COUNTS 104 109 0 0 0
M  V30 BEGIN ATOM
M  V30 1 C -2.701397 -0.222388 -4.833625 0
M  V30 2 C -3.159224 -0.083402 -3.582515 0
M  V30 3 C -3.219526 -1.211924 -2.578838 0 CFG=1
M  V30 4 C -2.304980 -0.939237 -1.359123 0
M  V30 5 N -2.982103 -1.227234 -0.066568 0
M  V30 6 C -3.511354 -2.612528 -0.123715 0
M  V30 7 C -4.591739 -2.766080 -1.206856 0
M  V30 8 C -4.652801 -1.482063 -2.054474 0 CFG=1
M  V30 9 C -5.087784 -0.340219 -1.114670 0
M  V30 10 C -4.147032 -0.286601 0.112905 0 CFG=2
M  V30 11 C -3.690859 1.181174 0.469453 0 CFG=2
M  V30 12 N -2.469823 1.107629 1.301147 0
M  V30 13 C -1.519448 2.091126 1.474876 0
M  V30 14 S -1.675059 3.675050 0.971491 0
M  V30 15 N -0.433185 1.583644 2.160327 0
M  V30 16 C 0.868622 2.242581 2.396157 0 CFG=2
M  V30 17 C 1.779744 2.109586 1.152575 0
M  V30 18 O 1.942897 0.727136 0.800287 0
M  V30 19 C 1.886492 0.422803 -0.538280 0
M  V30 20 C 0.932320 0.953379 -1.406347 0
M  V30 21 C 0.902937 0.551679 -2.743429 0
M  V30 22 C 1.810159 -0.403727 -3.222993 0
M  V30 23 C 1.746438 -0.841804 -4.666509 0
M  V30 24 F 2.651206 -1.803125 -4.996339 0
M  V30 25 F 0.525779 -1.353951 -4.994232 0
M  V30 26 F 1.960065 0.188715 -5.531551 0
M  V30 27 C 2.756501 -0.948851 -2.339127 0
M  V30 28 C 2.798864 -0.545858 -1.000977 0
M  V30 29 N 3.704189 -1.073645 -0.053428 0
M  V30 30 C 4.812438 -1.868671 -0.283445 0
M  V30 31 O 5.231969 -2.180455 -1.389661 0
M  V30 32 N 5.377517 -2.261888 0.921008 0
M  V30 33 C 6.578373 -2.975027 1.113301 0
M  V30 34 C 7.501587 -3.232833 0.097663 0
M  V30 35 C 8.690134 -3.936408 0.359314 0
M  V30 36 C 9.662606 -4.225176 -0.760706 0
M  V30 37 F 9.320339 -5.335381 -1.468747 0
M  V30 38 F 10.931590 -4.445108 -0.313953 0
M  V30 39 F 9.760013 -3.211672 -1.663509 0
M  V30 40 C 8.939777 -4.391378 1.663044 0
M  V30 41 C 8.031068 -4.134304 2.700471 0
M  V30 42 C 8.313646 -4.635346 4.096503 0
M  V30 43 F 9.552938 -4.284447 4.536113 0
M  V30 44 F 7.438783 -4.162652 5.027769 0
M  V30 45 F 8.253209 -5.992045 4.180641 0
M  V30 46 C 6.854515 -3.423492 2.411075 0
M  V30 47 C 1.480207 1.731928 3.732085 0
M  V30 48 C 1.974526 0.283066 3.711254 0
M  V30 49 C 2.610822 2.648412 4.213337 0
M  V30 50 C -4.810723 1.942028 1.175429 0
M  V30 51 C -5.086545 1.621417 2.514822 0
M  V30 52 C -6.129759 2.253294 3.156774 0
M  V30 53 N -6.922014 3.165590 2.568115 0
M  V30 54 C -6.664773 3.499703 1.295229 0
M  V30 55 C -7.487538 4.449825 0.712107 0
M  V30 56 C -7.306263 4.873920 -0.604221 0
M  V30 57 C -6.271832 4.351809 -1.367744 0
M  V30 58 O -6.186648 4.850044 -2.637189 0
M  V30 59 C -5.047476 4.479312 -3.403732 0
M  V30 60 C -5.436253 3.387471 -0.801792 0
M  V30 61 C -5.613627 2.930985 0.534129 0
M  V30 62 H -2.678887 0.621240 -5.517434 0
M  V30 63 H -2.337388 -1.174501 -5.210466 0
M  V30 64 H -3.500113 0.899607 -3.266675 0
M  V30 65 H -2.865768 -2.131703 -3.066761 0
M  V30 66 H -1.931243 0.090391 -1.357933 0
M  V30 67 H -1.406843 -1.567045 -1.433886 0
M  V30 68 H -2.687596 -3.313072 -0.310443 0
M  V30 69 H -3.919969 -2.894973 0.854343 0
M  V30 70 H -4.363128 -3.630609 -1.841615 0
M  V30 71 H -5.567058 -2.954542 -0.741786 0
M  V30 72 H -5.365856 -1.598361 -2.878228 0
M  V30 73 H -6.115611 -0.517819 -0.773848 0
M  V30 74 H -5.101437 0.605304 -1.662204 0
M  V30 75 H -4.703925 -0.667843 0.981292 0
M  V30 76 H -3.379074 1.683532 -0.448959 0
M  V30 77 H -2.132517 0.152240 1.354127 0
M  V30 78 H -0.416620 0.578102 2.251274 0
M  V30 79 H 0.671564 3.312163 2.535238 0
M  V30 80 H 2.775690 2.511692 1.366693 0
M  V30 81 H 1.378864 2.718636 0.336800 0
M  V30 82 H 0.181429 1.657708 -1.062222 0
M  V30 83 H 0.152658 0.974358 -3.411427 0
M  V30 84 H 3.443203 -1.703325 -2.716034 0
M  V30 85 H 3.603072 -0.671937 0.868987 0
M  V30 86 H 4.789377 -2.143619 1.732010 0
M  V30 87 H 7.327952 -2.884701 -0.918796 0
M  V30 88 H 9.853843 -4.949545 1.874370 0
M  V30 89 H 6.146364 -3.230464 3.216111 0
M  V30 90 H 0.685998 1.785781 4.490370 0
M  V30 91 H 2.872093 0.167617 3.095882 0
M  V30 92 H 2.237854 -0.040029 4.724906 0
M  V30 93 H 1.207212 -0.403063 3.341570 0
M  V30 94 H 2.273754 3.688739 4.269969 0
M  V30 95 H 2.944174 2.354447 5.214716 0
M  V30 96 H 3.479581 2.605788 3.549172 0
M  V30 97 H -4.492606 0.890169 3.054459 0
M  V30 98 H -6.367674 2.031579 4.193038 0
M  V30 99 H -8.295135 4.878478 1.301241 0
M  V30 100 H -7.971311 5.623022 -1.025627 0
M  V30 101 H -5.058335 3.407638 -3.628144 0
M  V30 102 H -5.093487 5.019035 -4.354376 0
M  V30 103 H -4.118636 4.768709 -2.900656 0
M  V30 104 H -4.626969 2.986791 -1.397534 0
M  V30 END ATOM
M  V30 BEGIN BOND
M  V30 1 2 1 2
M  V30 2 1 2 3
M  V30 3 1 3 4
M  V30 4 1 4 5
M  V30 5 1 5 6
M  V30 6 1 6 7
M  V30 7 1 7 8
M  V30 8 1 8 9
M  V30 9 1 9 10
M  V30 10 1 10 11
M  V30 11 1 11 12
M  V30 12 1 12 13
M  V30 13 2 13 14
M  V30 14 1 13 15
M  V30 15 1 15 16
M  V30 16 1 16 17
M  V30 17 1 17 18
M  V30 18 1 18 19
M  V30 19 2 19 20
M  V30 20 1 20 21
M  V30 21 2 21 22
M  V30 22 1 22 23
M  V30 23 1 23 24
M  V30 24 1 23 25
M  V30 25 1 23 26
M  V30 26 1 22 27
M  V30 27 2 27 28
M  V30 28 1 28 29
M  V30 29 1 29 30
M  V30 30 2 30 31
M  V30 31 1 30 32
M  V30 32 1 32 33
M  V30 33 2 33 34
M  V30 34 1 34 35
M  V30 35 1 35 36
M  V30 36 1 36 37
M  V30 37 1 36 38
M  V30 38 1 36 39
M  V30 39 2 35 40
M  V30 40 1 40 41
M  V30 41 1 41 42
M  V30 42 1 42 43
M  V30 43 1 42 44
M  V30 44 1 42 45
M  V30 45 2 41 46
M  V30 46 1 16 47
M  V30 47 1 47 48
M  V30 48 1 47 49
M  V30 49 1 11 50
M  V30 50 2 50 51
M  V30 51 1 51 52
M  V30 52 2 52 53
M  V30 53 1 53 54
M  V30 54 2 54 55
M  V30 55 1 55 56
M  V30 56 2 56 57
M  V30 57 1 57 58
M  V30 58 1 58 59
M  V30 59 1 57 60
M  V30 60 2 60 61
M  V30 61 1 8 3
M  V30 62 1 28 19
M  V30 63 1 46 33
M  V30 64 1 61 50
M  V30 65 1 10 5
M  V30 66 1 61 54
M  V30 67 1 1 62
M  V30 68 1 1 63
M  V30 69 1 2 64
M  V30 70 1 3 65 CFG=3
M  V30 71 1 4 66
M  V30 72 1 4 67
M  V30 73 1 6 68
M  V30 74 1 6 69
M  V30 75 1 7 70
M  V30 76 1 7 71
M  V30 77 1 8 72 CFG=3
M  V30 78 1 9 73
M  V30 79 1 9 74
M  V30 80 1 10 75 CFG=1
M  V30 81 1 11 76 CFG=3
M  V30 82 1 12 77
M  V30 83 1 15 78
M  V30 84 1 16 79 CFG=1
M  V30 85 1 17 80
M  V30 86 1 17 81
M  V30 87 1 20 82
M  V30 88 1 21 83
M  V30 89 1 27 84
M  V30 90 1 29 85
M  V30 91 1 32 86
M  V30 92 1 34 87
M  V30 93 1 40 88
M  V30 94 1 46 89
M  V30 95 1 47 90
M  V30 96 1 48 91
M  V30 97 1 48 92
M  V30 98 1 48 93
M  V30 99 1 49 94
M  V30 100 1 49 95
M  V30 101 1 49 96
M  V30 102 1 51 97
M  V30 103 1 52 98
M  V30 104 1 55 99
M  V30 105 1 56 100
M  V30 106 1 59 101
M  V30 107 1 59 102
M  V30 108 1 59 103
M  V30 109 1 60 104
M  V30 END BOND
M  V30 END CTAB
M  END
>  <catalyst_id>  (1) 
DFBUTMBWSWSQDK_AJPNNLQNSA_NONE

>  <source_smiles>  (1) 
C=C[C@H]1CN2CC[C@H]1C[C@@H]2[C@H](NC(=S)N[C@H](COc1ccc(C(F)(F)F)cc1NC(=O)Nc1cc(C(F)(F)F)cc(C(F)(F)F)c1)C(C)C)c1ccnc2ccc(OC)cc12

>  <axial_configuration>  (1) 
none

>  <inchikey>  (1) 
DFBUTMBWSWSQDK-AJPNNLQNSA-N

>  <build_source>  (1) 
smiles

>  <rdkit_version>  (1) 
2025.09.6

>  <random_seed>  (1) 
42

>  <generated_at>  (1) 
2026-05-19T12:32:36

$$$$
