catalyst196
     RDKit          3D

  0  0  0  0  0  0  0  0  0  0999 V3000
M  V30 BEGIN CTAB
M  V30 COUNTS 59 63 0 0 0
M  V30 BEGIN ATOM
M  V30 1 C 6.202640 -0.923820 1.095004 0
M  V30 2 C 4.920424 -0.684109 0.791041 0
M  V30 3 C 3.877183 -1.763712 0.622288 0 CFG=1
M  V30 4 C 2.662185 -1.554788 1.565802 0
M  V30 5 N 1.375272 -1.485882 0.819983 0
M  V30 6 C 1.201245 -2.760956 0.082366 0
M  V30 7 C 2.365383 -3.039295 -0.880241 0
M  V30 8 C 3.358285 -1.864303 -0.833838 0 CFG=1
M  V30 9 C 2.557450 -0.607049 -1.219454 0
M  V30 10 C 1.475351 -0.334157 -0.148156 0 CFG=1
M  V30 11 C 0.085504 0.036359 -0.778600 0 CFG=1
M  V30 12 N -0.977592 -0.097060 0.216634 0
M  V30 13 C -2.276318 -0.339142 -0.187605 0
M  V30 14 O -2.605172 -0.396577 -1.364422 0
M  V30 15 N -3.090936 -0.498450 0.911851 0
M  V30 16 C -4.458403 -0.832044 0.934164 0
M  V30 17 C -5.188044 -1.199117 -0.197788 0
M  V30 18 C -6.543857 -1.526045 -0.091519 0
M  V30 19 C -7.179523 -1.492010 1.147345 0
M  V30 20 C -6.459647 -1.131839 2.283132 0
M  V30 21 C -5.105163 -0.804888 2.176732 0
M  V30 22 C 0.084828 1.414892 -1.434867 0
M  V30 23 C -0.029762 1.455056 -2.832553 0
M  V30 24 C 0.008006 2.674694 -3.475311 0
M  V30 25 N 0.158418 3.849876 -2.838615 0
M  V30 26 C 0.239780 3.836269 -1.499805 0
M  V30 27 C 0.367830 5.060469 -0.857664 0
M  V30 28 C 0.451086 5.164690 0.530728 0
M  V30 29 C 0.400748 4.016789 1.304174 0
M  V30 30 C 0.274785 2.774022 0.682619 0
M  V30 31 C 0.201422 2.647921 -0.728582 0
M  V30 32 H 6.580876 -1.931566 1.236572 0
M  V30 33 H 6.908703 -0.105925 1.205874 0
M  V30 34 H 4.603699 0.349542 0.662826 0
M  V30 35 H 4.332671 -2.730639 0.880467 0
M  V30 36 H 2.611690 -2.383184 2.284961 0
M  V30 37 H 2.772987 -0.651917 2.180434 0
M  V30 38 H 0.252584 -2.757490 -0.466606 0
M  V30 39 H 1.110440 -3.586039 0.800244 0
M  V30 40 H 2.869917 -3.972001 -0.601141 0
M  V30 41 H 1.983166 -3.171921 -1.899485 0
M  V30 42 H 4.179302 -2.031486 -1.539977 0
M  V30 43 H 2.111803 -0.758395 -2.210104 0
M  V30 44 H 3.221105 0.260992 -1.305846 0
M  V30 45 H 1.810612 0.527099 0.442123 0
M  V30 46 H -0.133407 -0.718849 -1.546092 0
M  V30 47 H -0.685976 -0.678426 0.994354 0
M  V30 48 H -2.677904 -0.210941 1.785989 0
M  V30 49 H -4.729475 -1.241701 -1.180775 0
M  V30 50 H -7.100369 -1.806308 -0.982268 0
M  V30 51 H -8.233428 -1.745267 1.225405 0
M  V30 52 H -6.951392 -1.103770 3.251837 0
M  V30 53 H -4.565727 -0.526605 3.077938 0
M  V30 54 H -0.159841 0.549387 -3.417139 0
M  V30 55 H -0.083455 2.741093 -4.555503 0
M  V30 56 H 0.397970 5.965077 -1.461239 0
M  V30 57 H 0.545936 6.141064 0.997632 0
M  V30 58 H 0.452747 4.083275 2.387584 0
M  V30 59 H 0.221357 1.899112 1.323775 0
M  V30 END ATOM
M  V30 BEGIN BOND
M  V30 1 2 1 2
M  V30 2 1 2 3
M  V30 3 1 3 4
M  V30 4 1 4 5
M  V30 5 1 5 6
M  V30 6 1 6 7
M  V30 7 1 7 8
M  V30 8 1 8 9
M  V30 9 1 9 10
M  V30 10 1 10 11
M  V30 11 1 11 12
M  V30 12 1 12 13
M  V30 13 2 13 14
M  V30 14 1 13 15
M  V30 15 1 15 16
M  V30 16 2 16 17
M  V30 17 1 17 18
M  V30 18 2 18 19
M  V30 19 1 19 20
M  V30 20 2 20 21
M  V30 21 1 11 22
M  V30 22 2 22 23
M  V30 23 1 23 24
M  V30 24 2 24 25
M  V30 25 1 25 26
M  V30 26 2 26 27
M  V30 27 1 27 28
M  V30 28 2 28 29
M  V30 29 1 29 30
M  V30 30 2 30 31
M  V30 31 1 8 3
M  V30 32 1 21 16
M  V30 33 1 31 22
M  V30 34 1 10 5
M  V30 35 1 31 26
M  V30 36 1 1 32
M  V30 37 1 1 33
M  V30 38 1 2 34
M  V30 39 1 3 35 CFG=1
M  V30 40 1 4 36
M  V30 41 1 4 37
M  V30 42 1 6 38
M  V30 43 1 6 39
M  V30 44 1 7 40
M  V30 45 1 7 41
M  V30 46 1 8 42 CFG=3
M  V30 47 1 9 43
M  V30 48 1 9 44
M  V30 49 1 10 45 CFG=1
M  V30 50 1 11 46 CFG=3
M  V30 51 1 12 47
M  V30 52 1 15 48
M  V30 53 1 17 49
M  V30 54 1 18 50
M  V30 55 1 19 51
M  V30 56 1 20 52
M  V30 57 1 21 53
M  V30 58 1 23 54
M  V30 59 1 24 55
M  V30 60 1 27 56
M  V30 61 1 28 57
M  V30 62 1 29 58
M  V30 63 1 30 59
M  V30 END BOND
M  V30 END CTAB
M  END
>  <catalyst_id>  (1) 
MCTDCOUIDZVPQO_CWGXUGAXSA_NONE

>  <source_smiles>  (1) 
C=C[C@H]1CN2CC[C@H]1C[C@H]2[C@@H](NC(=O)Nc1ccccc1)c1ccnc2ccccc12

>  <axial_configuration>  (1) 
none

>  <inchikey>  (1) 
MCTDCOUIDZVPQO-CWGXUGAXSA-N

>  <build_source>  (1) 
smiles

>  <rdkit_version>  (1) 
2025.09.6

>  <random_seed>  (1) 
42

>  <generated_at>  (1) 
2026-05-19T12:40:23

$$$$
