catalyst401
     RDKit          3D

  0  0  0  0  0  0  0  0  0  0999 V3000
M  V30 BEGIN CTAB
M  V30 COUNTS 68 73 0 0 0
M  V30 BEGIN ATOM
M  V30 1 C 4.144393 -3.525978 1.562997 0
M  V30 2 C 3.213171 -2.923596 0.521594 0
M  V30 3 C 3.723057 -1.594491 -0.062743 0 CFG=1
M  V30 4 C 2.772225 -1.084463 -1.173928 0
M  V30 5 N 2.514046 0.368581 -1.060174 0
M  V30 6 C 3.820016 1.068099 -1.029941 0
M  V30 7 C 4.620134 0.705763 0.230800 0
M  V30 8 C 3.920083 -0.453758 0.965201 0 CFG=1
M  V30 9 C 2.542965 0.056553 1.425107 0
M  V30 10 C 1.787748 0.677073 0.220375 0 CFG=2
M  V30 11 C 0.250744 0.340596 0.183011 0 CFG=1
M  V30 12 O 0.060198 -1.071565 0.402783 0
M  V30 13 C -1.089803 -1.598974 -0.149968 0
M  V30 14 C -1.219871 -2.973035 -0.083386 0
M  V30 15 C -2.373499 -3.565166 -0.603797 0
M  V30 16 C -2.518195 -5.060268 -0.538588 0
M  V30 17 C -3.369649 -2.734350 -1.172579 0
M  V30 18 C -4.576832 -3.221359 -1.725664 0
M  V30 19 C -5.523254 -2.353276 -2.269359 0
M  V30 20 C -5.279969 -0.987258 -2.268946 0
M  V30 21 C -4.090843 -0.497402 -1.725752 0
M  V30 22 C -3.132059 -1.339471 -1.179852 0
M  V30 23 N -2.018133 -0.785360 -0.680613 0
M  V30 24 C -0.487583 1.175871 1.238655 0
M  V30 25 C -0.724698 0.630551 2.508316 0
M  V30 26 C -1.376937 1.394680 3.453548 0
M  V30 27 N -1.797818 2.654544 3.237316 0
M  V30 28 C -1.578385 3.192890 2.028402 0
M  V30 29 C -2.017858 4.491214 1.815430 0
M  V30 30 C -1.833721 5.151436 0.596730 0
M  V30 31 C -1.190692 4.500567 -0.445314 0
M  V30 32 O -0.936927 5.017370 -1.684710 0
M  V30 33 C -1.393668 6.340291 -1.936644 0
M  V30 34 C -0.741314 3.191440 -0.250289 0
M  V30 35 C -0.922868 2.507513 0.979216 0
M  V30 36 H 4.178140 -2.917296 2.471030 0
M  V30 37 H 5.161642 -3.625858 1.171787 0
M  V30 38 H 3.792285 -4.522643 1.848291 0
M  V30 39 H 3.103010 -3.645939 -0.297247 0
M  V30 40 H 2.217497 -2.803885 0.961285 0
M  V30 41 H 4.700433 -1.799527 -0.523275 0
M  V30 42 H 1.829779 -1.639398 -1.195539 0
M  V30 43 H 3.228755 -1.287188 -2.152054 0
M  V30 44 H 3.665584 2.153237 -1.076412 0
M  V30 45 H 4.396739 0.817468 -1.929404 0
M  V30 46 H 4.695298 1.576618 0.893218 0
M  V30 47 H 5.641526 0.419376 -0.046083 0
M  V30 48 H 4.524268 -0.768797 1.820748 0
M  V30 49 H 1.986053 -0.757424 1.897463 0
M  V30 50 H 2.678519 0.826195 2.195707 0
M  V30 51 H 1.848917 1.770062 0.327453 0
M  V30 52 H -0.107446 0.600449 -0.820513 0
M  V30 53 H -0.431313 -3.566013 0.366824 0
M  V30 54 H -1.646707 -5.528725 -0.068526 0
M  V30 55 H -2.610770 -5.478366 -1.546082 0
M  V30 56 H -3.396730 -5.332307 0.055185 0
M  V30 57 H -4.792574 -4.286763 -1.737292 0
M  V30 58 H -6.446059 -2.744473 -2.689712 0
M  V30 59 H -6.008735 -0.298415 -2.687592 0
M  V30 60 H -3.905730 0.574837 -1.726400 0
M  V30 61 H -0.416207 -0.378484 2.760697 0
M  V30 62 H -1.584735 1.000859 4.444125 0
M  V30 63 H -2.522154 5.009505 2.628340 0
M  V30 64 H -2.204031 6.166381 0.505061 0
M  V30 65 H -2.483674 6.404432 -1.853588 0
M  V30 66 H -1.122475 6.597411 -2.965116 0
M  V30 67 H -0.903070 7.059971 -1.273003 0
M  V30 68 H -0.240234 2.709435 -1.086609 0
M  V30 END ATOM
M  V30 BEGIN BOND
M  V30 1 1 1 2
M  V30 2 1 2 3
M  V30 3 1 3 4
M  V30 4 1 4 5
M  V30 5 1 5 6
M  V30 6 1 6 7
M  V30 7 1 7 8
M  V30 8 1 8 9
M  V30 9 1 9 10
M  V30 10 1 10 11
M  V30 11 1 11 12
M  V30 12 1 12 13
M  V30 13 2 13 14
M  V30 14 1 14 15
M  V30 15 1 15 16
M  V30 16 2 15 17
M  V30 17 1 17 18
M  V30 18 2 18 19
M  V30 19 1 19 20
M  V30 20 2 20 21
M  V30 21 1 21 22
M  V30 22 2 22 23
M  V30 23 1 11 24
M  V30 24 2 24 25
M  V30 25 1 25 26
M  V30 26 2 26 27
M  V30 27 1 27 28
M  V30 28 2 28 29
M  V30 29 1 29 30
M  V30 30 2 30 31
M  V30 31 1 31 32
M  V30 32 1 32 33
M  V30 33 1 31 34
M  V30 34 2 34 35
M  V30 35 1 8 3
M  V30 36 1 23 13
M  V30 37 1 35 24
M  V30 38 1 10 5
M  V30 39 1 22 17
M  V30 40 1 35 28
M  V30 41 1 1 36
M  V30 42 1 1 37
M  V30 43 1 1 38
M  V30 44 1 2 39
M  V30 45 1 2 40
M  V30 46 1 3 41 CFG=3
M  V30 47 1 4 42
M  V30 48 1 4 43
M  V30 49 1 6 44
M  V30 50 1 6 45
M  V30 51 1 7 46
M  V30 52 1 7 47
M  V30 53 1 8 48 CFG=1
M  V30 54 1 9 49
M  V30 55 1 9 50
M  V30 56 1 10 51 CFG=1
M  V30 57 1 11 52 CFG=3
M  V30 58 1 14 53
M  V30 59 1 16 54
M  V30 60 1 16 55
M  V30 61 1 16 56
M  V30 62 1 18 57
M  V30 63 1 19 58
M  V30 64 1 20 59
M  V30 65 1 21 60
M  V30 66 1 25 61
M  V30 67 1 26 62
M  V30 68 1 29 63
M  V30 69 1 30 64
M  V30 70 1 33 65
M  V30 71 1 33 66
M  V30 72 1 33 67
M  V30 73 1 34 68
M  V30 END BOND
M  V30 END CTAB
M  END
>  <catalyst_id>  (1) 
XNLQXNDAUCSSKU_YVFWCQEHSA_NONE

>  <source_smiles>  (1) 
CC[C@H]1CN2CC[C@H]1C[C@@H]2[C@@H](Oc1cc(C)c2ccccc2n1)c1ccnc2ccc(OC)cc12

>  <axial_configuration>  (1) 
none

>  <inchikey>  (1) 
XNLQXNDAUCSSKU-YVFWCQEHSA-N

>  <build_source>  (1) 
smiles

>  <rdkit_version>  (1) 
2025.09.6

>  <random_seed>  (1) 
42

>  <generated_at>  (1) 
2026-05-19T12:36:57

$$$$
