catalyst115
     RDKit          3D

  0  0  0  0  0  0  0  0  0  0999 V3000
M  V30 BEGIN CTAB
M  V30 COUNTS 56 59 0 0 0
M  V30 BEGIN ATOM
M  V30 1 C 4.248984 -2.772916 1.272112 0
M  V30 2 C 3.252039 -1.947728 0.927240 0
M  V30 3 C 3.369475 -0.873101 -0.128174 0 CFG=1
M  V30 4 C 2.290586 -1.024580 -1.231333 0
M  V30 5 N 1.644300 0.268247 -1.575327 0
M  V30 6 C 2.721148 1.235077 -1.906066 0
M  V30 7 C 3.605208 1.537587 -0.683693 0
M  V30 8 C 3.258885 0.557322 0.453112 0 CFG=1
M  V30 9 C 1.799109 0.830097 0.864770 0
M  V30 10 C 0.890470 0.807690 -0.390855 0 CFG=2
M  V30 11 C -0.511864 0.132135 -0.159048 0 CFG=1
M  V30 12 O -0.376850 -1.127294 0.525386 0
M  V30 13 Si -1.414902 -2.406500 0.177500 0 VAL=4
M  V30 14 C -3.211768 -1.941227 0.464288 0
M  V30 15 C -1.000352 -3.859766 1.302785 0
M  V30 16 C -1.225153 -2.979516 -1.602743 0
M  V30 17 C -1.420534 1.081481 0.632105 0
M  V30 18 C -1.460219 0.987614 2.030644 0
M  V30 19 C -2.280204 1.842620 2.736379 0
M  V30 20 N -3.051033 2.783369 2.160604 0
M  V30 21 C -3.014947 2.900379 0.824474 0
M  V30 22 C -3.806930 3.881663 0.244193 0
M  V30 23 C -3.833160 4.093058 -1.134527 0
M  V30 24 C -3.045824 3.307268 -1.960900 0
M  V30 25 C -2.241845 2.312374 -1.403982 0
M  V30 26 C -2.210895 2.080704 -0.005055 0
M  V30 27 H 5.228413 -2.714445 0.807863 0
M  V30 28 H 4.101698 -3.530148 2.036384 0
M  V30 29 H 2.290373 -2.057369 1.426324 0
M  V30 30 H 4.355607 -0.963251 -0.606538 0
M  V30 31 H 1.536121 -1.768488 -0.966645 0
M  V30 32 H 2.763862 -1.429403 -2.136310 0
M  V30 33 H 3.333427 0.840874 -2.727205 0
M  V30 34 H 2.283835 2.165045 -2.290129 0
M  V30 35 H 3.445418 2.569678 -0.348938 0
M  V30 36 H 4.662650 1.445211 -0.957785 0
M  V30 37 H 3.934308 0.700120 1.303864 0
M  V30 38 H 1.733368 1.819193 1.335878 0
M  V30 39 H 1.483557 0.106592 1.621727 0
M  V30 40 H 0.669892 1.854507 -0.647694 0
M  V30 41 H -0.959870 -0.049906 -1.143216 0
M  V30 42 H -3.517331 -1.133882 -0.207476 0
M  V30 43 H -3.366145 -1.610253 1.495347 0
M  V30 44 H -3.863809 -2.800435 0.280798 0
M  V30 45 H -1.122263 -3.577089 2.352469 0
M  V30 46 H -1.658207 -4.708390 1.094034 0
M  V30 47 H 0.034952 -4.178161 1.149299 0
M  V30 48 H -0.201636 -3.313359 -1.795111 0
M  V30 49 H -1.900460 -3.815186 -1.809308 0
M  V30 50 H -1.460442 -2.170714 -2.300375 0
M  V30 51 H -0.866908 0.252977 2.566183 0
M  V30 52 H -2.341699 1.792232 3.819611 0
M  V30 53 H -4.422940 4.504413 0.889352 0
M  V30 54 H -4.464927 4.871786 -1.552986 0
M  V30 55 H -3.052536 3.465495 -3.036357 0
M  V30 56 H -1.632032 1.726300 -2.086948 0
M  V30 END ATOM
M  V30 BEGIN BOND
M  V30 1 2 1 2
M  V30 2 1 2 3
M  V30 3 1 3 4
M  V30 4 1 4 5
M  V30 5 1 5 6
M  V30 6 1 6 7
M  V30 7 1 7 8
M  V30 8 1 8 9
M  V30 9 1 9 10
M  V30 10 1 10 11
M  V30 11 1 11 12
M  V30 12 1 12 13
M  V30 13 1 13 14
M  V30 14 1 13 15
M  V30 15 1 13 16
M  V30 16 1 11 17
M  V30 17 2 17 18
M  V30 18 1 18 19
M  V30 19 2 19 20
M  V30 20 1 20 21
M  V30 21 2 21 22
M  V30 22 1 22 23
M  V30 23 2 23 24
M  V30 24 1 24 25
M  V30 25 2 25 26
M  V30 26 1 8 3
M  V30 27 1 26 17
M  V30 28 1 10 5
M  V30 29 1 26 21
M  V30 30 1 1 27
M  V30 31 1 1 28
M  V30 32 1 2 29
M  V30 33 1 3 30 CFG=3
M  V30 34 1 4 31
M  V30 35 1 4 32
M  V30 36 1 6 33
M  V30 37 1 6 34
M  V30 38 1 7 35
M  V30 39 1 7 36
M  V30 40 1 8 37 CFG=1
M  V30 41 1 9 38
M  V30 42 1 9 39
M  V30 43 1 10 40 CFG=3
M  V30 44 1 11 41 CFG=3
M  V30 45 1 14 42
M  V30 46 1 14 43
M  V30 47 1 14 44
M  V30 48 1 15 45
M  V30 49 1 15 46
M  V30 50 1 15 47
M  V30 51 1 16 48
M  V30 52 1 16 49
M  V30 53 1 16 50
M  V30 54 1 18 51
M  V30 55 1 19 52
M  V30 56 1 22 53
M  V30 57 1 23 54
M  V30 58 1 24 55
M  V30 59 1 25 56
M  V30 END BOND
M  V30 END CTAB
M  END
>  <catalyst_id>  (1) 
IQLLFUGAOGFKHW_QPAOKJHLSA_NONE

>  <source_smiles>  (1) 
C=C[C@H]1CN2CC[C@H]1C[C@@H]2[C@@H](O[Si](C)(C)C)c1ccnc2ccccc12

>  <axial_configuration>  (1) 
none

>  <inchikey>  (1) 
IQLLFUGAOGFKHW-QPAOKJHLSA-N

>  <build_source>  (1) 
smiles

>  <rdkit_version>  (1) 
2025.09.6

>  <random_seed>  (1) 
42

>  <generated_at>  (1) 
2026-05-19T12:30:42

$$$$
