catalyst5
     RDKit          3D

  0  0  0  0  0  0  0  0  0  0999 V3000
M  V30 BEGIN CTAB
M  V30 COUNTS 42 43 0 0 0
M  V30 BEGIN ATOM
M  V30 1 C 3.924823 -1.178002 -0.043468 0
M  V30 2 C 2.603655 -0.401660 -0.256015 0
M  V30 3 C 2.953646 0.905437 -1.000740 0
M  V30 4 C 1.707810 -1.248606 -1.170843 0
M  V30 5 C 1.958471 -0.069307 1.131333 0 CFG=2
M  V30 6 N 1.604997 -1.243418 1.964744 0
M  V30 7 C 0.810582 0.987557 1.092023 0
M  V30 8 O 1.112016 2.163049 1.351263 0
M  V30 9 N -0.499034 0.654889 0.740860 0
M  V30 10 C -1.458130 1.763806 0.772012 0
M  V30 11 C -2.804440 1.491291 0.083854 0 CFG=1
M  V30 12 C -2.688072 1.432560 -1.451115 0
M  V30 13 N -1.905792 0.299586 -1.942458 0
M  V30 14 C -2.310441 -0.970209 -1.342742 0
M  V30 15 C -2.411432 -0.925000 0.193870 0 CFG=2
M  V30 16 C -3.379712 0.178948 0.604474 0
M  V30 17 C -1.049152 -0.698552 0.876233 0
M  V30 18 H 4.448562 -1.335545 -0.993732 0
M  V30 19 H 3.749504 -2.166644 0.393602 0
M  V30 20 H 4.604318 -0.630100 0.618950 0
M  V30 21 H 2.054741 1.469912 -1.271198 0
M  V30 22 H 3.588988 1.552817 -0.385942 0
M  V30 23 H 3.495329 0.698710 -1.931175 0
M  V30 24 H 1.437380 -2.201496 -0.704802 0
M  V30 25 H 0.792450 -0.715220 -1.437493 0
M  V30 26 H 2.220080 -1.486003 -2.111038 0
M  V30 27 H 2.744039 0.435627 1.715256 0
M  V30 28 H 2.443661 -1.799086 2.123594 0
M  V30 29 H 1.326946 -0.899155 2.885088 0
M  V30 30 H -1.636451 1.989304 1.831977 0
M  V30 31 H -0.998044 2.657004 0.331886 0
M  V30 32 H -3.489317 2.309758 0.338526 0
M  V30 33 H -2.233715 2.358869 -1.820546 0
M  V30 34 H -3.694950 1.383121 -1.884954 0
M  V30 35 H -1.962212 0.246045 -2.958270 0
M  V30 36 H -1.594734 -1.744520 -1.640984 0
M  V30 37 H -3.281889 -1.266763 -1.758453 0
M  V30 38 H -2.804904 -1.891407 0.533255 0
M  V30 39 H -3.496675 0.209205 1.694432 0
M  V30 40 H -4.374136 -0.001923 0.178738 0
M  V30 41 H -0.346241 -1.439102 0.499283 0
M  V30 42 H -1.162526 -0.875776 1.953483 0
M  V30 END ATOM
M  V30 BEGIN BOND
M  V30 1 1 1 2
M  V30 2 1 2 3
M  V30 3 1 2 4
M  V30 4 1 2 5
M  V30 5 1 5 6
M  V30 6 1 5 7
M  V30 7 2 7 8
M  V30 8 1 7 9
M  V30 9 1 9 10
M  V30 10 1 10 11
M  V30 11 1 11 12
M  V30 12 1 12 13
M  V30 13 1 13 14
M  V30 14 1 14 15
M  V30 15 1 15 16
M  V30 16 1 15 17
M  V30 17 1 17 9
M  V30 18 1 16 11
M  V30 19 1 1 18
M  V30 20 1 1 19
M  V30 21 1 1 20
M  V30 22 1 3 21
M  V30 23 1 3 22
M  V30 24 1 3 23
M  V30 25 1 4 24
M  V30 26 1 4 25
M  V30 27 1 4 26
M  V30 28 1 5 27 CFG=1
M  V30 29 1 6 28
M  V30 30 1 6 29
M  V30 31 1 10 30
M  V30 32 1 10 31
M  V30 33 1 11 32 CFG=3
M  V30 34 1 12 33
M  V30 35 1 12 34
M  V30 36 1 13 35
M  V30 37 1 14 36
M  V30 38 1 14 37
M  V30 39 1 15 38 CFG=1
M  V30 40 1 16 39
M  V30 41 1 16 40
M  V30 42 1 17 41
M  V30 43 1 17 42
M  V30 END BOND
M  V30 END CTAB
M  END
>  <catalyst_id>  (1) 
AMDLPFTZHDQUJK_VQXHTEKXSA_NONE

>  <source_smiles>  (1) 
CC(C)(C)[C@H](N)C(=O)N1CC2CNCC(C2)C1

>  <axial_configuration>  (1) 
none

>  <inchikey>  (1) 
AMDLPFTZHDQUJK-VQXHTEKXSA-N

>  <build_source>  (1) 
smiles

>  <rdkit_version>  (1) 
2025.09.6

>  <random_seed>  (1) 
42

>  <generated_at>  (1) 
2026-05-19T12:37:17

$$$$
