catalyst153
     RDKit          3D

  0  0  0  0  0  0  0  0  0  0999 V3000
M  V30 BEGIN CTAB
M  V30 COUNTS 35 36 0 0 0
M  V30 BEGIN ATOM
M  V30 1 O -2.149764 2.429036 0.973122 0
M  V30 2 C -1.910874 1.751439 -0.019928 0
M  V30 3 O -1.908396 2.270050 -1.256399 0
M  V30 4 C -1.591028 0.235168 0.068995 0 CFG=2
M  V30 5 C -0.137015 -0.015644 -0.309295 0
M  V30 6 C 0.228767 -0.683748 -1.486312 0
M  V30 7 C 1.574290 -0.902372 -1.799306 0
M  V30 8 C 2.595383 -0.448661 -0.954656 0
M  V30 9 C 3.948124 -0.664925 -1.261039 0
M  V30 10 C 4.953180 -0.196221 -0.414576 0
M  V30 11 C 4.618535 0.495631 0.745082 0
M  V30 12 C 3.277709 0.718504 1.062451 0
M  V30 13 C 2.253900 0.248897 0.222728 0
M  V30 14 C 0.896984 0.461342 0.526268 0
M  V30 15 C -2.660297 -0.572165 -0.691665 0
M  V30 16 C -3.823720 -0.659074 0.282991 0
M  V30 17 C -3.144357 -0.964689 1.598350 0
M  V30 18 N -1.852702 -0.222246 1.530958 0 CHG=1
M  V30 19 Cl 0.000000 0.000000 0.000000 0 CHG=-1
M  V30 20 H -2.075711 3.236439 -1.173926 0
M  V30 21 H -0.510264 -1.041414 -2.201280 0
M  V30 22 H 1.823656 -1.426804 -2.721488 0
M  V30 23 H 4.233439 -1.198571 -2.165722 0
M  V30 24 H 5.997968 -0.368045 -0.663814 0
M  V30 25 H 5.403712 0.864628 1.401250 0
M  V30 26 H 3.046605 1.266640 1.973192 0
M  V30 27 H 0.661094 1.026389 1.428329 0
M  V30 28 H -2.964517 -0.110449 -1.636580 0
M  V30 29 H -2.316149 -1.590598 -0.912122 0
M  V30 30 H -4.545117 -1.431995 0.002629 0
M  V30 31 H -4.357081 0.297154 0.336559 0
M  V30 32 H -3.701538 -0.622511 2.473921 0
M  V30 33 H -2.895557 -2.026137 1.693961 0
M  V30 34 H -1.071395 -0.791408 1.879055 0
M  V30 35 H -1.897867 0.636359 2.106968 0
M  V30 END ATOM
M  V30 BEGIN BOND
M  V30 1 2 1 2
M  V30 2 1 2 3
M  V30 3 1 4 2 CFG=1
M  V30 4 1 4 5
M  V30 5 2 5 6
M  V30 6 1 6 7
M  V30 7 2 7 8
M  V30 8 1 8 9
M  V30 9 2 9 10
M  V30 10 1 10 11
M  V30 11 2 11 12
M  V30 12 1 12 13
M  V30 13 2 13 14
M  V30 14 1 4 15
M  V30 15 1 15 16
M  V30 16 1 16 17
M  V30 17 1 17 18
M  V30 18 1 18 4
M  V30 19 1 14 5
M  V30 20 1 13 8
M  V30 21 1 3 20
M  V30 22 1 6 21
M  V30 23 1 7 22
M  V30 24 1 9 23
M  V30 25 1 10 24
M  V30 26 1 11 25
M  V30 27 1 12 26
M  V30 28 1 14 27
M  V30 29 1 15 28
M  V30 30 1 15 29
M  V30 31 1 16 30
M  V30 32 1 16 31
M  V30 33 1 17 32
M  V30 34 1 17 33
M  V30 35 1 18 34
M  V30 36 1 18 35
M  V30 END BOND
M  V30 END CTAB
M  END
>  <catalyst_id>  (1) 
KEUHVBTWXNGVNO_XFULWGLBSA_NONE

>  <source_smiles>  (1) 
O=C(O)[C@]1(c2ccc3ccccc3c2)CCC[NH2+]1.[Cl-]

>  <axial_configuration>  (1) 
none

>  <inchikey>  (1) 
KEUHVBTWXNGVNO-XFULWGLBSA-N

>  <build_source>  (1) 
smiles

>  <rdkit_version>  (1) 
2025.09.6

>  <random_seed>  (1) 
42

>  <generated_at>  (1) 
2026-05-19T12:29:59

$$$$
