catalyst414
     RDKit          3D

  0  0  0  0  0  0  0  0  0  0999 V3000
M  V30 BEGIN CTAB
M  V30 COUNTS 26 26 0 0 0
M  V30 BEGIN ATOM
M  V30 1 C 4.255057 -1.068695 0.229527 0
M  V30 2 O 3.226438 -0.390648 -0.492875 0
M  V30 3 C 1.963854 -0.778309 -0.154644 0
M  V30 4 O 1.689459 -1.632212 0.681044 0
M  V30 5 C 0.928327 -0.015581 -0.993984 0 CFG=2
M  V30 6 C 0.957162 1.486789 -0.718083 0
M  V30 7 C -0.391968 1.812591 -0.088560 0
M  V30 8 C -0.899147 0.476085 0.420748 0 CFG=1
M  V30 9 C -2.415127 0.443186 0.613142 0
M  V30 10 O -3.114581 1.433147 0.794252 0
M  V30 11 O -2.872955 -0.844195 0.632609 0
M  V30 12 C -4.283048 -0.956421 0.820028 0
M  V30 13 N -0.450426 -0.439897 -0.652588 0
M  V30 14 H 5.219524 -0.683105 -0.112278 0
M  V30 15 H 4.163765 -0.871644 1.302272 0
M  V30 16 H 4.220338 -2.143784 0.027373 0
M  V30 17 H 1.120200 -0.244762 -2.047505 0
M  V30 18 H 1.764508 1.768438 -0.032669 0
M  V30 19 H 1.087046 2.060466 -1.642280 0
M  V30 20 H -0.296022 2.551001 0.714297 0
M  V30 21 H -1.064736 2.236059 -0.845509 0
M  V30 22 H -0.426395 0.217468 1.376110 0
M  V30 23 H -4.571830 -0.557631 1.797464 0
M  V30 24 H -4.820536 -0.442855 0.016637 0
M  V30 25 H -4.545895 -2.017388 0.787993 0
M  V30 26 H -0.443010 -1.398103 -0.289223 0
M  V30 END ATOM
M  V30 BEGIN BOND
M  V30 1 1 1 2
M  V30 2 1 2 3
M  V30 3 2 3 4
M  V30 4 1 3 5
M  V30 5 1 5 6
M  V30 6 1 6 7
M  V30 7 1 7 8
M  V30 8 1 8 9
M  V30 9 2 9 10
M  V30 10 1 9 11
M  V30 11 1 11 12
M  V30 12 1 8 13
M  V30 13 1 13 5
M  V30 14 1 1 14
M  V30 15 1 1 15
M  V30 16 1 1 16
M  V30 17 1 5 17 CFG=3
M  V30 18 1 6 18
M  V30 19 1 6 19
M  V30 20 1 7 20
M  V30 21 1 7 21
M  V30 22 1 8 22 CFG=1
M  V30 23 1 12 23
M  V30 24 1 12 24
M  V30 25 1 12 25
M  V30 26 1 13 26
M  V30 END BOND
M  V30 END CTAB
M  END
>  <catalyst_id>  (1) 
YGMCCBARPIHBKI_WDSKDSINSA_NONE

>  <source_smiles>  (1) 
COC(=O)[C@@H]1CC[C@@H](C(=O)OC)N1

>  <axial_configuration>  (1) 
none

>  <inchikey>  (1) 
YGMCCBARPIHBKI-WDSKDSINSA-N

>  <build_source>  (1) 
smiles

>  <rdkit_version>  (1) 
2025.09.6

>  <random_seed>  (1) 
42

>  <generated_at>  (1) 
2026-05-19T12:30:05

$$$$
