catalyst316
     RDKit          3D

  0  0  0  0  0  0  0  0  0  0999 V3000
M  V30 BEGIN CTAB
M  V30 COUNTS 73 78 0 0 0
M  V30 BEGIN ATOM
M  V30 1 C -4.918437 -3.749409 2.187126 0
M  V30 2 C -4.126680 -2.937390 1.474514 0
M  V30 3 C -3.576890 -1.629800 1.993974 0 CFG=1
M  V30 4 C -2.028289 -1.583745 1.920585 0
M  V30 5 N -1.529124 -0.283597 1.398785 0
M  V30 6 C -2.146156 0.804423 2.196657 0
M  V30 7 C -3.671330 0.853564 2.000862 0
M  V30 8 C -4.130108 -0.400203 1.231260 0 CFG=1
M  V30 9 C -3.492984 -0.335470 -0.170875 0
M  V30 10 C -1.967914 -0.109676 -0.033889 0 CFG=2
M  V30 11 C -1.135358 -0.992723 -1.041203 0 CFG=2
M  V30 12 N 0.264915 -1.055943 -0.584273 0
M  V30 13 C 1.170684 -1.912448 -1.013625 0
M  V30 14 C 2.471408 -2.251712 -0.718913 0
M  V30 15 N 3.468959 -1.944093 0.086060 0
M  V30 16 C 3.621046 -0.858479 0.975237 0
M  V30 17 C 2.921368 0.345052 0.844950 0
M  V30 18 C 3.029351 1.369157 1.801854 0
M  V30 19 C 2.261090 2.658160 1.628262 0
M  V30 20 F 2.912507 3.546980 0.830795 0
M  V30 21 F 1.027548 2.477194 1.083394 0
M  V30 22 F 2.047972 3.307177 2.808881 0
M  V30 23 C 3.881050 1.184242 2.900630 0
M  V30 24 C 4.605798 -0.005804 3.053323 0
M  V30 25 C 5.495413 -0.218739 4.253926 0
M  V30 26 F 6.033468 0.938161 4.729760 0
M  V30 27 F 6.549909 -1.041335 3.996411 0
M  V30 28 F 4.827138 -0.780082 5.297833 0
M  V30 29 C 4.454420 -1.019835 2.092587 0
M  V30 30 C 2.477776 -3.320388 -1.746827 0
M  V30 31 O 3.237679 -4.154484 -2.172772 0
M  V30 32 C 1.072901 -2.974255 -2.050698 0
M  V30 33 O 0.253050 -3.467737 -2.786425 0
M  V30 34 C -1.243508 -0.489815 -2.478947 0
M  V30 35 C -1.978233 -1.279035 -3.377069 0
M  V30 36 C -2.110213 -0.864481 -4.685971 0
M  V30 37 N -1.579605 0.274975 -5.164287 0
M  V30 38 C -0.866037 1.039986 -4.326114 0
M  V30 39 C -0.308801 2.202013 -4.840841 0
M  V30 40 C 0.460777 3.070907 -4.061518 0
M  V30 41 C 0.679925 2.776409 -2.725725 0
M  V30 42 O 1.410882 3.518000 -1.842267 0
M  V30 43 C 2.016372 4.704132 -2.340561 0
M  V30 44 C 0.118258 1.614797 -2.190238 0
M  V30 45 C -0.659038 0.717347 -2.964494 0
M  V30 46 H -5.224021 -3.509353 3.201010 0
M  V30 47 H -5.283303 -4.681135 1.764528 0
M  V30 48 H -3.856319 -3.238326 0.464432 0
M  V30 49 H -3.867224 -1.525350 3.049549 0
M  V30 50 H -1.616893 -1.740051 2.926700 0
M  V30 51 H -1.621310 -2.407036 1.321286 0
M  V30 52 H -1.702243 1.768399 1.918861 0
M  V30 53 H -1.904839 0.666072 3.258193 0
M  V30 54 H -4.169438 0.905455 2.976084 0
M  V30 55 H -3.951288 1.756609 1.445000 0
M  V30 56 H -5.222954 -0.428813 1.158895 0
M  V30 57 H -3.931361 0.497740 -0.734546 0
M  V30 58 H -3.721731 -1.246830 -0.732656 0
M  V30 59 H -1.771254 0.941008 -0.282675 0
M  V30 60 H -1.530531 -2.016226 -0.984030 0
M  V30 61 H 0.327428 -0.678298 0.369817 0
M  V30 62 H 4.302058 -2.535912 0.078198 0
M  V30 63 H 2.298821 0.516650 -0.030121 0
M  V30 64 H 3.979083 1.975062 3.646425 0
M  V30 65 H 4.990927 -1.958624 2.230935 0
M  V30 66 H -2.425332 -2.220956 -3.073338 0
M  V30 67 H -2.661063 -1.459318 -5.408954 0
M  V30 68 H -0.475286 2.438305 -5.889962 0
M  V30 69 H 0.868135 3.957913 -4.533796 0
M  V30 70 H 2.562711 5.172532 -1.516284 0
M  V30 71 H 2.737873 4.476164 -3.132067 0
M  V30 72 H 1.260786 5.416685 -2.687437 0
M  V30 73 H 0.305611 1.415632 -1.139645 0
M  V30 END ATOM
M  V30 BEGIN BOND
M  V30 1 2 1 2
M  V30 2 1 2 3
M  V30 3 1 3 4
M  V30 4 1 4 5
M  V30 5 1 5 6
M  V30 6 1 6 7
M  V30 7 1 7 8
M  V30 8 1 8 9
M  V30 9 1 9 10
M  V30 10 1 10 11
M  V30 11 1 11 12
M  V30 12 1 12 13
M  V30 13 2 13 14
M  V30 14 1 14 15
M  V30 15 1 15 16
M  V30 16 2 16 17
M  V30 17 1 17 18
M  V30 18 1 18 19
M  V30 19 1 19 20
M  V30 20 1 19 21
M  V30 21 1 19 22
M  V30 22 2 18 23
M  V30 23 1 23 24
M  V30 24 1 24 25
M  V30 25 1 25 26
M  V30 26 1 25 27
M  V30 27 1 25 28
M  V30 28 2 24 29
M  V30 29 1 14 30
M  V30 30 2 30 31
M  V30 31 1 30 32
M  V30 32 2 32 33
M  V30 33 1 11 34
M  V30 34 2 34 35
M  V30 35 1 35 36
M  V30 36 2 36 37
M  V30 37 1 37 38
M  V30 38 2 38 39
M  V30 39 1 39 40
M  V30 40 2 40 41
M  V30 41 1 41 42
M  V30 42 1 42 43
M  V30 43 1 41 44
M  V30 44 2 44 45
M  V30 45 1 8 3
M  V30 46 1 32 13
M  V30 47 1 45 34
M  V30 48 1 10 5
M  V30 49 1 29 16
M  V30 50 1 45 38
M  V30 51 1 1 46
M  V30 52 1 1 47
M  V30 53 1 2 48
M  V30 54 1 3 49 CFG=1
M  V30 55 1 4 50
M  V30 56 1 4 51
M  V30 57 1 6 52
M  V30 58 1 6 53
M  V30 59 1 7 54
M  V30 60 1 7 55
M  V30 61 1 8 56 CFG=3
M  V30 62 1 9 57
M  V30 63 1 9 58
M  V30 64 1 10 59 CFG=3
M  V30 65 1 11 60 CFG=3
M  V30 66 1 12 61
M  V30 67 1 15 62
M  V30 68 1 17 63
M  V30 69 1 23 64
M  V30 70 1 29 65
M  V30 71 1 35 66
M  V30 72 1 36 67
M  V30 73 1 39 68
M  V30 74 1 40 69
M  V30 75 1 43 70
M  V30 76 1 43 71
M  V30 77 1 43 72
M  V30 78 1 44 73
M  V30 END BOND
M  V30 END CTAB
M  END
>  <catalyst_id>  (1) 
RWVDHFLTDHDJKH_ZRJNXXGPSA_NONE

>  <source_smiles>  (1) 
C=C[C@H]1CN2CC[C@H]1C[C@@H]2[C@H](Nc1c(Nc2cc(C(F)(F)F)cc(C(F)(F)F)c2)c(=O)c1=O)c1ccnc2ccc(OC)cc12

>  <axial_configuration>  (1) 
none

>  <inchikey>  (1) 
RWVDHFLTDHDJKH-ZRJNXXGPSA-N

>  <build_source>  (1) 
smiles

>  <rdkit_version>  (1) 
2025.09.6

>  <random_seed>  (1) 
42

>  <generated_at>  (1) 
2026-05-19T12:34:22

$$$$
