catalyst211
     RDKit          3D

  0  0  0  0  0  0  0  0  0  0999 V3000
M  V30 BEGIN CTAB
M  V30 COUNTS 83 88 0 0 0
M  V30 BEGIN ATOM
M  V30 1 C -2.607023 1.745795 4.526957 0
M  V30 2 C -2.929602 2.537731 3.495964 0
M  V30 3 C -3.943267 2.274044 2.401265 0 CFG=1
M  V30 4 C -3.333767 2.561318 1.000075 0
M  V30 5 N -3.755433 1.564326 -0.018611 0
M  V30 6 C -5.235309 1.484178 -0.002503 0
M  V30 7 C -5.756130 0.938963 1.336733 0
M  V30 8 C -4.596500 0.867530 2.349442 0 CFG=1
M  V30 9 C -3.575817 -0.150070 1.802482 0
M  V30 10 C -3.209476 0.210050 0.342275 0 CFG=2
M  V30 11 C -1.666768 0.084840 0.063487 0 CFG=2
M  V30 12 N -1.309725 0.834678 -1.152252 0
M  V30 13 C -0.084713 1.329306 -1.489308 0
M  V30 14 S -0.028940 2.704106 -2.428781 0
M  V30 15 N 0.977868 0.637151 -0.983864 0
M  V30 16 C 2.411423 0.963436 -1.181030 0 CFG=1
M  V30 17 C 2.853631 2.156895 -0.330247 0
M  V30 18 C 3.971352 2.906849 -0.735460 0
M  V30 19 C 4.429846 3.977918 0.033336 0
M  V30 20 C 3.777670 4.317966 1.215690 0
M  V30 21 C 2.664051 3.591091 1.628574 0
M  V30 22 C 2.205180 2.517307 0.863043 0
M  V30 23 C 3.314871 -0.287638 -0.837371 0 CFG=1
M  V30 24 N 2.863244 -0.843351 0.463978 0
M  V30 25 S 3.961879 -1.369324 1.591987 0
M  V30 26 C 4.745838 0.132829 2.141583 0
M  V30 27 O 4.951811 -2.183911 0.928608 0
M  V30 28 O 3.166536 -1.874031 2.691269 0
M  V30 29 C 3.254030 -1.305103 -1.973388 0
M  V30 30 C 2.563923 -2.521018 -1.858273 0
M  V30 31 C 2.502872 -3.414885 -2.929245 0
M  V30 32 C 3.135294 -3.111074 -4.131195 0
M  V30 33 C 3.836209 -1.915530 -4.261620 0
M  V30 34 C 3.898039 -1.020642 -3.191207 0
M  V30 35 C -1.213510 -1.372681 0.043427 0
M  V30 36 C -0.506773 -1.839597 1.164247 0
M  V30 37 C -0.087142 -3.153168 1.196239 0
M  V30 38 N -0.330365 -4.032131 0.208082 0
M  V30 39 C -1.008129 -3.610568 -0.869728 0
M  V30 40 C -1.242789 -4.535914 -1.877207 0
M  V30 41 C -1.927556 -4.200909 -3.044690 0
M  V30 42 C -2.394212 -2.907688 -3.213051 0
M  V30 43 C -2.174537 -1.960498 -2.212547 0
M  V30 44 C -1.479162 -2.283411 -1.020013 0
M  V30 45 H -3.063908 0.775849 4.690281 0
M  V30 46 H -1.870926 2.067766 5.258671 0
M  V30 47 H -2.434999 3.508509 3.439980 0
M  V30 48 H -4.749664 3.003222 2.568373 0
M  V30 49 H -2.239027 2.615395 1.036293 0
M  V30 50 H -3.652184 3.558852 0.668760 0
M  V30 51 H -5.583499 0.848115 -0.825649 0
M  V30 52 H -5.661519 2.476194 -0.198797 0
M  V30 53 H -6.189135 -0.058645 1.194543 0
M  V30 54 H -6.554194 1.587320 1.717051 0
M  V30 55 H -4.975559 0.555779 3.328272 0
M  V30 56 H -2.689964 -0.175765 2.443895 0
M  V30 57 H -4.012169 -1.156516 1.827266 0
M  V30 58 H -3.716547 -0.507748 -0.316478 0
M  V30 59 H -1.127932 0.603021 0.868679 0
M  V30 60 H -2.062841 1.457792 -1.442166 0
M  V30 61 H 0.798390 -0.360917 -1.006192 0
M  V30 62 H 2.537848 1.237844 -2.235661 0
M  V30 63 H 4.490337 2.668105 -1.661962 0
M  V30 64 H 5.290686 4.554561 -0.296417 0
M  V30 65 H 4.129294 5.158770 1.808267 0
M  V30 66 H 2.145381 3.866875 2.543354 0
M  V30 67 H 1.325422 1.976786 1.203453 0
M  V30 68 H 4.362616 0.026671 -0.752700 0
M  V30 69 H 2.018425 -0.425316 0.849650 0
M  V30 70 H 5.464803 -0.135050 2.919435 0
M  V30 71 H 3.987430 0.794745 2.560741 0
M  V30 72 H 5.270348 0.600122 1.308010 0
M  V30 73 H 2.072938 -2.800290 -0.929021 0
M  V30 74 H 1.964128 -4.352396 -2.815951 0
M  V30 75 H 3.088167 -3.810309 -4.961457 0
M  V30 76 H 4.337469 -1.681071 -5.197094 0
M  V30 77 H 4.456763 -0.096050 -3.319412 0
M  V30 78 H -0.279180 -1.195582 2.008461 0
M  V30 79 H 0.477545 -3.543461 2.039617 0
M  V30 80 H -0.875584 -5.551976 -1.749191 0
M  V30 81 H -2.089339 -4.949730 -3.815071 0
M  V30 82 H -2.925131 -2.629437 -4.119854 0
M  V30 83 H -2.553611 -0.957200 -2.387128 0
M  V30 END ATOM
M  V30 BEGIN BOND
M  V30 1 2 1 2
M  V30 2 1 2 3
M  V30 3 1 3 4
M  V30 4 1 4 5
M  V30 5 1 5 6
M  V30 6 1 6 7
M  V30 7 1 7 8
M  V30 8 1 8 9
M  V30 9 1 9 10
M  V30 10 1 10 11
M  V30 11 1 11 12
M  V30 12 1 12 13
M  V30 13 2 13 14
M  V30 14 1 13 15
M  V30 15 1 15 16
M  V30 16 1 16 17
M  V30 17 2 17 18
M  V30 18 1 18 19
M  V30 19 2 19 20
M  V30 20 1 20 21
M  V30 21 2 21 22
M  V30 22 1 16 23
M  V30 23 1 23 24
M  V30 24 1 24 25
M  V30 25 1 25 26
M  V30 26 2 25 27
M  V30 27 2 25 28
M  V30 28 1 23 29
M  V30 29 2 29 30
M  V30 30 1 30 31
M  V30 31 2 31 32
M  V30 32 1 32 33
M  V30 33 2 33 34
M  V30 34 1 11 35
M  V30 35 2 35 36
M  V30 36 1 36 37
M  V30 37 2 37 38
M  V30 38 1 38 39
M  V30 39 2 39 40
M  V30 40 1 40 41
M  V30 41 2 41 42
M  V30 42 1 42 43
M  V30 43 2 43 44
M  V30 44 1 8 3
M  V30 45 1 22 17
M  V30 46 1 34 29
M  V30 47 1 44 35
M  V30 48 1 10 5
M  V30 49 1 44 39
M  V30 50 1 1 45
M  V30 51 1 1 46
M  V30 52 1 2 47
M  V30 53 1 3 48 CFG=1
M  V30 54 1 4 49
M  V30 55 1 4 50
M  V30 56 1 6 51
M  V30 57 1 6 52
M  V30 58 1 7 53
M  V30 59 1 7 54
M  V30 60 1 8 55 CFG=1
M  V30 61 1 9 56
M  V30 62 1 9 57
M  V30 63 1 10 58 CFG=3
M  V30 64 1 11 59 CFG=1
M  V30 65 1 12 60
M  V30 66 1 15 61
M  V30 67 1 16 62 CFG=3
M  V30 68 1 18 63
M  V30 69 1 19 64
M  V30 70 1 20 65
M  V30 71 1 21 66
M  V30 72 1 22 67
M  V30 73 1 23 68 CFG=1
M  V30 74 1 24 69
M  V30 75 1 26 70
M  V30 76 1 26 71
M  V30 77 1 26 72
M  V30 78 1 30 73
M  V30 79 1 31 74
M  V30 80 1 32 75
M  V30 81 1 33 76
M  V30 82 1 34 77
M  V30 83 1 36 78
M  V30 84 1 37 79
M  V30 85 1 40 80
M  V30 86 1 41 81
M  V30 87 1 42 82
M  V30 88 1 43 83
M  V30 END BOND
M  V30 END CTAB
M  END
>  <catalyst_id>  (1) 
NHBSHNOBNPNWBO_SKKZAYMQSA_NONE

>  <source_smiles>  (1) 
C=C[C@H]1CN2CC[C@H]1C[C@@H]2[C@H](NC(=S)N[C@@H](c1ccccc1)[C@@H](NS(C)(=O)=O)c1ccccc1)c1ccnc2ccccc12

>  <axial_configuration>  (1) 
none

>  <inchikey>  (1) 
NHBSHNOBNPNWBO-SKKZAYMQSA-N

>  <build_source>  (1) 
smiles

>  <rdkit_version>  (1) 
2025.09.6

>  <random_seed>  (1) 
42

>  <generated_at>  (1) 
2026-05-19T12:33:33

$$$$
