catalyst81
     RDKit          3D

  0  0  0  0  0  0  0  0  0  0999 V3000
M  V30 BEGIN CTAB
M  V30 COUNTS 67 72 0 0 0
M  V30 BEGIN ATOM
M  V30 1 C -5.852780 0.653710 1.129224 0
M  V30 2 C -4.593579 0.618833 0.674145 0
M  V30 3 C -3.655732 1.802978 0.694636 0 CFG=1
M  V30 4 C -2.327944 1.485769 1.434908 0
M  V30 5 N -1.138157 1.716851 0.571440 0
M  V30 6 C -1.124525 3.142023 0.168526 0
M  V30 7 C -2.413282 3.549494 -0.561378 0
M  V30 8 C -3.316593 2.314354 -0.728669 0 CFG=1
M  V30 9 C -2.486093 1.274011 -1.503351 0
M  V30 10 C -1.279945 0.833432 -0.641500 0 CFG=1
M  V30 11 C 0.053050 0.727416 -1.478023 0 CFG=1
M  V30 12 N 1.203993 0.714865 -0.556827 0
M  V30 13 C 2.458438 0.931782 -0.901154 0
M  V30 14 C 3.673194 1.086930 -0.273172 0
M  V30 15 N 4.228553 1.104659 0.922200 0
M  V30 16 C 3.692787 0.740035 2.177713 0
M  V30 17 C 2.612663 -0.136542 2.325069 0
M  V30 18 C 2.070052 -0.397587 3.585789 0
M  V30 19 Cl 0.733952 -1.472635 3.733941 0
M  V30 20 C 2.594038 0.204315 4.724000 0
M  V30 21 C 3.669275 1.073985 4.589072 0
M  V30 22 Cl 4.330096 1.835308 5.984290 0
M  V30 23 C 4.213484 1.345711 3.331603 0
M  V30 24 C 4.367400 1.315121 -1.563105 0
M  V30 25 O 5.483225 1.551711 -1.954927 0
M  V30 26 C 3.060746 1.171284 -2.239950 0
M  V30 27 O 2.721214 1.302462 -3.390817 0
M  V30 28 C 0.057193 -0.482332 -2.409242 0
M  V30 29 C -0.032302 -0.225646 -3.786164 0
M  V30 30 C -0.047400 -1.284536 -4.669531 0
M  V30 31 N 0.006234 -2.573025 -4.288840 0
M  V30 32 C 0.101685 -2.841268 -2.978989 0
M  V30 33 C 0.172491 -4.176016 -2.607197 0
M  V30 34 C 0.279583 -4.574974 -1.271951 0
M  V30 35 C 0.317115 -3.615003 -0.273755 0
M  V30 36 O 0.423160 -3.847831 1.067512 0
M  V30 37 C 0.519371 -5.204063 1.482964 0
M  V30 38 C 0.242254 -2.265993 -0.630627 0
M  V30 39 C 0.133242 -1.840575 -1.979214 0
M  V30 40 H -6.288744 1.557057 1.544484 0
M  V30 41 H -6.479970 -0.232322 1.093456 0
M  V30 42 H -4.214040 -0.319486 0.273045 0
M  V30 43 H -4.145914 2.625260 1.235580 0
M  V30 44 H -2.306800 0.455562 1.813707 0
M  V30 45 H -2.246985 2.118872 2.328516 0
M  V30 46 H -0.988290 3.771062 1.057296 0
M  V30 47 H -0.253524 3.349981 -0.463720 0
M  V30 48 H -2.168066 3.975236 -1.541734 0
M  V30 49 H -2.937912 4.327412 0.006090 0
M  V30 50 H -4.223026 2.577957 -1.285004 0
M  V30 51 H -3.100074 0.401903 -1.756103 0
M  V30 52 H -2.160203 1.712925 -2.454158 0
M  V30 53 H -1.504376 -0.170029 -0.259057 0
M  V30 54 H 0.137721 1.646529 -2.074070 0
M  V30 55 H 0.883821 0.961801 0.388473 0
M  V30 56 H 5.207277 1.387950 1.003474 0
M  V30 57 H 2.204216 -0.653784 1.462712 0
M  V30 58 H 2.168986 -0.001438 5.701869 0
M  V30 59 H 5.038999 2.049194 3.252553 0
M  V30 60 H -0.067059 0.787704 -4.175315 0
M  V30 61 H -0.102450 -1.118858 -5.741647 0
M  V30 62 H 0.146809 -4.935285 -3.386333 0
M  V30 63 H 0.332676 -5.636528 -1.057407 0
M  V30 64 H 1.417066 -5.679443 1.074063 0
M  V30 65 H 0.604398 -5.214228 2.573872 0
M  V30 66 H -0.382257 -5.763876 1.213435 0
M  V30 67 H 0.277568 -1.540136 0.176581 0
M  V30 END ATOM
M  V30 BEGIN BOND
M  V30 1 2 1 2
M  V30 2 1 2 3
M  V30 3 1 3 4
M  V30 4 1 4 5
M  V30 5 1 5 6
M  V30 6 1 6 7
M  V30 7 1 7 8
M  V30 8 1 8 9
M  V30 9 1 9 10
M  V30 10 1 10 11
M  V30 11 1 11 12
M  V30 12 1 12 13
M  V30 13 2 13 14
M  V30 14 1 14 15
M  V30 15 1 15 16
M  V30 16 2 16 17
M  V30 17 1 17 18
M  V30 18 1 18 19
M  V30 19 2 18 20
M  V30 20 1 20 21
M  V30 21 1 21 22
M  V30 22 2 21 23
M  V30 23 1 14 24
M  V30 24 2 24 25
M  V30 25 1 24 26
M  V30 26 2 26 27
M  V30 27 1 11 28
M  V30 28 2 28 29
M  V30 29 1 29 30
M  V30 30 2 30 31
M  V30 31 1 31 32
M  V30 32 2 32 33
M  V30 33 1 33 34
M  V30 34 2 34 35
M  V30 35 1 35 36
M  V30 36 1 36 37
M  V30 37 1 35 38
M  V30 38 2 38 39
M  V30 39 1 8 3
M  V30 40 1 26 13
M  V30 41 1 39 28
M  V30 42 1 10 5
M  V30 43 1 23 16
M  V30 44 1 39 32
M  V30 45 1 1 40
M  V30 46 1 1 41
M  V30 47 1 2 42
M  V30 48 1 3 43 CFG=1
M  V30 49 1 4 44
M  V30 50 1 4 45
M  V30 51 1 6 46
M  V30 52 1 6 47
M  V30 53 1 7 48
M  V30 54 1 7 49
M  V30 55 1 8 50 CFG=3
M  V30 56 1 9 51
M  V30 57 1 9 52
M  V30 58 1 10 53 CFG=1
M  V30 59 1 11 54 CFG=3
M  V30 60 1 12 55
M  V30 61 1 15 56
M  V30 62 1 17 57
M  V30 63 1 20 58
M  V30 64 1 23 59
M  V30 65 1 29 60
M  V30 66 1 30 61
M  V30 67 1 33 62
M  V30 68 1 34 63
M  V30 69 1 37 64
M  V30 70 1 37 65
M  V30 71 1 37 66
M  V30 72 1 38 67
M  V30 END BOND
M  V30 END CTAB
M  END
>  <catalyst_id>  (1) 
GLIZTDBQHDOLMK_FRSFCCSCSA_NONE

>  <source_smiles>  (1) 
C=C[C@H]1CN2CC[C@H]1C[C@H]2[C@@H](Nc1c(Nc2cc(Cl)cc(Cl)c2)c(=O)c1=O)c1ccnc2ccc(OC)cc12

>  <axial_configuration>  (1) 
none

>  <inchikey>  (1) 
GLIZTDBQHDOLMK-FRSFCCSCSA-N

>  <build_source>  (1) 
smiles

>  <rdkit_version>  (1) 
2025.09.6

>  <random_seed>  (1) 
42

>  <generated_at>  (1) 
2026-05-19T12:36:48

$$$$
