catalyst195
     RDKit          3D

  0  0  0  0  0  0  0  0  0  0999 V3000
M  V30 BEGIN CTAB
M  V30 COUNTS 71 76 0 0 0
M  V30 BEGIN ATOM
M  V30 1 C 4.896361 -4.553989 -1.436355 0
M  V30 2 C 4.185607 -3.472289 -1.091668 0
M  V30 3 C 3.548740 -2.531632 -2.087305 0 CFG=1
M  V30 4 C 2.022757 -2.385294 -1.850222 0
M  V30 5 N 1.576628 -0.967684 -1.919213 0
M  V30 6 C 2.057062 -0.393169 -3.199828 0
M  V30 7 C 3.592989 -0.339460 -3.257327 0
M  V30 8 C 4.177767 -1.116216 -2.062626 0 CFG=1
M  V30 9 C 3.740899 -0.379508 -0.781561 0
M  V30 10 C 2.204514 -0.186645 -0.794063 0 CFG=2
M  V30 11 C 1.555499 -0.492439 0.609471 0 CFG=2
M  V30 12 N 0.111278 -0.733414 0.447989 0
M  V30 13 C -0.680850 -1.222150 1.374522 0
M  V30 14 C -2.012565 -1.386540 1.592318 0
M  V30 15 C -3.330465 -1.029416 0.887123 0
M  V30 16 C -4.527549 -1.633649 1.269800 0
M  V30 17 C -5.729011 -1.283179 0.632893 0
M  V30 18 C -7.031080 -1.920612 1.060238 0
M  V30 19 F -7.594802 -1.281560 2.120476 0
M  V30 20 F -7.972486 -1.916800 0.075697 0
M  V30 21 F -6.889026 -3.222102 1.432790 0
M  V30 22 C -5.706759 -0.303435 -0.376064 0
M  V30 23 C -4.503682 0.307944 -0.767156 0
M  V30 24 C -4.485341 1.382908 -1.828718 0
M  V30 25 F -3.370705 1.340543 -2.609226 0
M  V30 26 F -4.530168 2.635687 -1.298565 0
M  V30 27 F -5.541194 1.301895 -2.685881 0
M  V30 28 C -3.315261 -0.064721 -0.122518 0
M  V30 29 C -1.840674 -2.019578 2.889874 0
M  V30 30 O -2.502498 -2.502677 3.773813 0
M  V30 31 C -0.371818 -1.843039 2.697639 0
M  V30 32 O 0.591163 -2.149271 3.356905 0
M  V30 33 C 1.808979 0.628237 1.616982 0
M  V30 34 C 2.698266 0.356883 2.666792 0
M  V30 35 C 2.949893 1.338892 3.602031 0
M  V30 36 N 2.390143 2.562153 3.569374 0
M  V30 37 C 1.526141 2.838053 2.581690 0
M  V30 38 C 0.934953 4.094250 2.578320 0
M  V30 39 C 0.006114 4.482612 1.607149 0
M  V30 40 C -0.340786 3.595440 0.601612 0
M  V30 41 O -1.234604 3.819260 -0.406915 0
M  V30 42 C -1.961749 5.041068 -0.361894 0
M  V30 43 C 0.259774 2.334900 0.579922 0
M  V30 44 C 1.192149 1.915437 1.564193 0
M  V30 45 H 5.329279 -5.199256 -0.677324 0
M  V30 46 H 5.066525 -4.823058 -2.474419 0
M  V30 47 H 4.050644 -3.261152 -0.032723 0
M  V30 48 H 3.694212 -2.943067 -3.096757 0
M  V30 49 H 1.484351 -2.960734 -2.615069 0
M  V30 50 H 1.711535 -2.828795 -0.896771 0
M  V30 51 H 1.667735 -0.984220 -4.038489 0
M  V30 52 H 1.643002 0.613732 -3.334527 0
M  V30 53 H 3.944928 -0.771454 -4.201480 0
M  V30 54 H 3.935042 0.702203 -3.229867 0
M  V30 55 H 5.270446 -1.159719 -2.130318 0
M  V30 56 H 4.076624 -0.929907 0.103294 0
M  V30 57 H 4.227038 0.603465 -0.740400 0
M  V30 58 H 2.012015 0.870444 -1.018911 0
M  V30 59 H 1.993574 -1.428116 0.982363 0
M  V30 60 H -0.144379 -0.732354 -0.545590 0
M  V30 61 H -4.545824 -2.379992 2.064171 0
M  V30 62 H -6.640061 -0.012429 -0.862279 0
M  V30 63 H -2.383013 0.424084 -0.403567 0
M  V30 64 H 3.175923 -0.612706 2.773100 0
M  V30 65 H 3.626301 1.160610 4.433285 0
M  V30 66 H 1.200788 4.795767 3.366794 0
M  V30 67 H -0.418229 5.478433 1.672870 0
M  V30 68 H -2.664763 5.042422 -1.200458 0
M  V30 69 H -1.293920 5.899976 -0.484405 0
M  V30 70 H -2.544218 5.121385 0.561970 0
M  V30 71 H -0.030155 1.668741 -0.227001 0
M  V30 END ATOM
M  V30 BEGIN BOND
M  V30 1 2 1 2
M  V30 2 1 2 3
M  V30 3 1 3 4
M  V30 4 1 4 5
M  V30 5 1 5 6
M  V30 6 1 6 7
M  V30 7 1 7 8
M  V30 8 1 8 9
M  V30 9 1 9 10
M  V30 10 1 10 11
M  V30 11 1 11 12
M  V30 12 1 12 13
M  V30 13 2 13 14
M  V30 14 1 14 15
M  V30 15 2 15 16
M  V30 16 1 16 17
M  V30 17 1 17 18
M  V30 18 1 18 19
M  V30 19 1 18 20
M  V30 20 1 18 21
M  V30 21 2 17 22
M  V30 22 1 22 23
M  V30 23 1 23 24
M  V30 24 1 24 25
M  V30 25 1 24 26
M  V30 26 1 24 27
M  V30 27 2 23 28
M  V30 28 1 14 29
M  V30 29 2 29 30
M  V30 30 1 29 31
M  V30 31 2 31 32
M  V30 32 1 11 33
M  V30 33 2 33 34
M  V30 34 1 34 35
M  V30 35 2 35 36
M  V30 36 1 36 37
M  V30 37 2 37 38
M  V30 38 1 38 39
M  V30 39 2 39 40
M  V30 40 1 40 41
M  V30 41 1 41 42
M  V30 42 1 40 43
M  V30 43 2 43 44
M  V30 44 1 8 3
M  V30 45 1 31 13
M  V30 46 1 44 33
M  V30 47 1 10 5
M  V30 48 1 28 15
M  V30 49 1 44 37
M  V30 50 1 1 45
M  V30 51 1 1 46
M  V30 52 1 2 47
M  V30 53 1 3 48 CFG=3
M  V30 54 1 4 49
M  V30 55 1 4 50
M  V30 56 1 6 51
M  V30 57 1 6 52
M  V30 58 1 7 53
M  V30 59 1 7 54
M  V30 60 1 8 55 CFG=3
M  V30 61 1 9 56
M  V30 62 1 9 57
M  V30 63 1 10 58 CFG=3
M  V30 64 1 11 59 CFG=1
M  V30 65 1 12 60
M  V30 66 1 16 61
M  V30 67 1 22 62
M  V30 68 1 28 63
M  V30 69 1 34 64
M  V30 70 1 35 65
M  V30 71 1 38 66
M  V30 72 1 39 67
M  V30 73 1 42 68
M  V30 74 1 42 69
M  V30 75 1 42 70
M  V30 76 1 43 71
M  V30 END BOND
M  V30 END CTAB
M  END
>  <catalyst_id>  (1) 
MAJJJADMPAFCCG_NKFGGQSZSA_NONE

>  <source_smiles>  (1) 
C=C[C@H]1CN2CC[C@H]1C[C@@H]2[C@H](Nc1c(-c2cc(C(F)(F)F)cc(C(F)(F)F)c2)c(=O)c1=O)c1ccnc2ccc(OC)cc12

>  <axial_configuration>  (1) 
none

>  <inchikey>  (1) 
MAJJJADMPAFCCG-NKFGGQSZSA-N

>  <build_source>  (1) 
smiles

>  <rdkit_version>  (1) 
2025.09.6

>  <random_seed>  (1) 
42

>  <generated_at>  (1) 
2026-05-19T12:36:36

$$$$
