catalyst302
     RDKit          3D

  0  0  0  0  0  0  0  0  0  0999 V3000
M  V30 BEGIN CTAB
M  V30 COUNTS 25 25 0 0 0
M  V30 BEGIN ATOM
M  V30 1 O -3.648780 0.117469 -1.858890 0
M  V30 2 S -3.081035 0.334146 -0.539696 0
M  V30 3 O -3.126528 1.659420 0.051549 0
M  V30 4 N -1.436504 -0.041356 -0.733371 0
M  V30 5 C -0.504382 0.457793 0.303808 0
M  V30 6 C 0.870391 -0.205557 0.107075 0 CFG=2
M  V30 7 C 1.957804 0.412617 0.986748 0
M  V30 8 C 3.156800 0.602783 0.066594 0
M  V30 9 C 2.824413 -0.211055 -1.167209 0
M  V30 10 N 1.373442 -0.067870 -1.274378 0
M  V30 11 C -3.722198 -0.953371 0.657060 0
M  V30 12 F -3.543816 -2.221800 0.188821 0
M  V30 13 F -3.077684 -0.889671 1.859034 0
M  V30 14 F -5.051757 -0.804599 0.912170 0
M  V30 15 H -1.123889 0.179971 -1.683443 0
M  V30 16 H -0.414279 1.545346 0.200015 0
M  V30 17 H -0.882033 0.224243 1.303959 0
M  V30 18 H 0.785535 -1.276749 0.335916 0
M  V30 19 H 1.663347 1.371506 1.427065 0
M  V30 20 H 2.210655 -0.267677 1.808010 0
M  V30 21 H 3.255440 1.663832 -0.193835 0
M  V30 22 H 4.092094 0.283352 0.536039 0
M  V30 23 H 3.096244 -1.263602 -1.024851 0
M  V30 24 H 3.334598 0.164195 -2.058610 0
M  V30 25 H 0.992120 -0.813365 -1.857031 0
M  V30 END ATOM
M  V30 BEGIN BOND
M  V30 1 2 1 2
M  V30 2 2 2 3
M  V30 3 1 2 4
M  V30 4 1 4 5
M  V30 5 1 5 6
M  V30 6 1 6 7
M  V30 7 1 7 8
M  V30 8 1 8 9
M  V30 9 1 9 10
M  V30 10 1 2 11
M  V30 11 1 11 12
M  V30 12 1 11 13
M  V30 13 1 11 14
M  V30 14 1 10 6
M  V30 15 1 4 15
M  V30 16 1 5 16
M  V30 17 1 5 17
M  V30 18 1 6 18 CFG=1
M  V30 19 1 7 19
M  V30 20 1 7 20
M  V30 21 1 8 21
M  V30 22 1 8 22
M  V30 23 1 9 23
M  V30 24 1 9 24
M  V30 25 1 10 25
M  V30 END BOND
M  V30 END CTAB
M  END
>  <catalyst_id>  (1) 
RIWFUAUXWIEOTK_YFKPBYRVSA_NONE

>  <source_smiles>  (1) 
O=S(=O)(NC[C@@H]1CCCN1)C(F)(F)F

>  <axial_configuration>  (1) 
none

>  <inchikey>  (1) 
RIWFUAUXWIEOTK-YFKPBYRVSA-N

>  <build_source>  (1) 
smiles

>  <rdkit_version>  (1) 
2025.09.6

>  <random_seed>  (1) 
42

>  <generated_at>  (1) 
2026-05-19T12:29:45

$$$$
