catalyst134
     RDKit          3D

  0  0  0  0  0  0  0  0  0  0999 V3000
M  V30 BEGIN CTAB
M  V30 COUNTS 43 47 0 0 0
M  V30 BEGIN ATOM
M  V30 1 O -4.744031 -0.432870 0.710537 0
M  V30 2 C -4.147689 -1.013106 -0.175309 0
M  V30 3 O -4.798426 -1.654745 -1.162990 0
M  V30 4 C -2.679906 -1.131506 -0.330343 0
M  V30 5 C -2.163501 -2.394647 -0.644600 0
M  V30 6 C -0.790458 -2.597431 -0.813649 0
M  V30 7 C -0.316488 -3.868805 -1.180878 0
M  V30 8 C 1.040474 -4.096310 -1.395798 0
M  V30 9 C 1.939831 -3.050870 -1.255004 0
M  V30 10 C 1.480639 -1.784585 -0.884253 0
M  V30 11 C 0.110845 -1.521348 -0.629019 0
M  V30 12 C -0.403454 -0.243009 -0.229495 0
M  V30 13 C -1.816444 -0.040822 -0.139088 0
M  V30 14 C -2.329954 1.373902 0.062028 0
M  V30 15 N -2.152659 2.244781 -1.115990 0
M  V30 16 C -0.841810 2.142074 -1.771703 0
M  V30 17 C 0.315652 2.085656 -0.798400 0
M  V30 18 C 1.151507 3.194731 -0.644217 0
M  V30 19 C 2.153374 3.185970 0.321138 0
M  V30 20 C 2.314844 2.094005 1.182900 0
M  V30 21 C 3.300480 2.138271 2.183484 0
M  V30 22 C 3.459757 1.087300 3.083954 0
M  V30 23 C 2.627834 -0.019190 3.000648 0
M  V30 24 C 1.648120 -0.079250 2.006696 0
M  V30 25 C 1.474521 0.957872 1.056518 0
M  V30 26 C 0.498071 0.930666 0.009994 0
M  V30 27 H -5.744194 -1.481430 -0.974495 0
M  V30 28 H -2.852063 -3.227451 -0.781860 0
M  V30 29 H -1.009124 -4.697697 -1.315150 0
M  V30 30 H 1.389817 -5.083894 -1.684403 0
M  V30 31 H 2.999582 -3.211547 -1.434943 0
M  V30 32 H 2.220267 -0.990282 -0.802565 0
M  V30 33 H -1.845039 1.815263 0.943235 0
M  V30 34 H -3.392064 1.398682 0.307802 0
M  V30 35 H -2.282487 3.205622 -0.802947 0
M  V30 36 H -0.728333 3.004912 -2.439822 0
M  V30 37 H -0.814900 1.272349 -2.440478 0
M  V30 38 H 1.019522 4.077873 -1.264947 0
M  V30 39 H 2.791333 4.062394 0.417935 0
M  V30 40 H 3.951351 3.005381 2.276667 0
M  V30 41 H 4.223847 1.140188 3.854671 0
M  V30 42 H 2.733600 -0.838261 3.707155 0
M  V30 43 H 1.007753 -0.958833 1.986988 0
M  V30 END ATOM
M  V30 BEGIN BOND
M  V30 1 2 1 2
M  V30 2 1 2 3
M  V30 3 1 2 4
M  V30 4 2 4 5
M  V30 5 1 5 6
M  V30 6 2 6 7
M  V30 7 1 7 8
M  V30 8 2 8 9
M  V30 9 1 9 10
M  V30 10 2 10 11
M  V30 11 1 11 12
M  V30 12 2 12 13
M  V30 13 1 13 14
M  V30 14 1 14 15
M  V30 15 1 15 16
M  V30 16 1 16 17
M  V30 17 2 17 18
M  V30 18 1 18 19
M  V30 19 2 19 20
M  V30 20 1 20 21
M  V30 21 2 21 22
M  V30 22 1 22 23
M  V30 23 2 23 24
M  V30 24 1 24 25
M  V30 25 2 25 26
M  V30 26 1 13 4
M  V30 27 1 26 17
M  V30 28 1 11 6
M  V30 29 1 26 12
M  V30 30 1 25 20
M  V30 31 1 3 27
M  V30 32 1 5 28
M  V30 33 1 7 29
M  V30 34 1 8 30
M  V30 35 1 9 31
M  V30 36 1 10 32
M  V30 37 1 14 33
M  V30 38 1 14 34
M  V30 39 1 15 35
M  V30 40 1 16 36
M  V30 41 1 16 37
M  V30 42 1 18 38
M  V30 43 1 19 39
M  V30 44 1 21 40
M  V30 45 1 22 41
M  V30 46 1 23 42
M  V30 47 1 24 43
M  V30 END BOND
M  V30 END CTAB
M  END
>  <catalyst_id>  (1) 
JNPCZXHHUXSLKR_UHFFFAOYSA_S

>  <source_smiles>  (1) 
O=C(O)c1cc2ccccc2c2c1CNCc1ccc3ccccc3c1-2

>  <axial_configuration>  (1) 
S

>  <inchikey>  (1) 
JNPCZXHHUXSLKR-UHFFFAOYSA-N

>  <build_source>  (1) 
smiles+axial_bridged

>  <final_biaryl_angle_deg>  (1) 
-64.36

>  <n_valid_conformers>  (1) 
14

>  <rdkit_version>  (1) 
2025.09.6

>  <random_seed>  (1) 
42

>  <generated_at>  (1) 
2026-05-19T12:30:40

$$$$
