catalyst174
     RDKit          3D

  0  0  0  0  0  0  0  0  0  0999 V3000
M  V30 BEGIN CTAB
M  V30 COUNTS 79 84 0 0 0
M  V30 BEGIN ATOM
M  V30 1 C -1.409907 5.561363 2.243315 0
M  V30 2 C -1.129355 4.431234 1.581488 0
M  V30 3 C -0.238318 4.366470 0.363386 0 CFG=1
M  V30 4 C 0.944288 3.378893 0.554782 0
M  V30 5 N 0.969764 2.323724 -0.495773 0
M  V30 6 C 1.116431 2.986958 -1.813508 0
M  V30 7 C -0.008470 3.997906 -2.082269 0
M  V30 8 C -1.013162 3.964024 -0.916470 0 CFG=1
M  V30 9 C -1.514481 2.510734 -0.822600 0
M  V30 10 C -0.341942 1.585274 -0.428322 0 CFG=1
M  V30 11 C -0.314231 0.241495 -1.248378 0 CFG=1
M  V30 12 N 1.014157 -0.382927 -1.074021 0
M  V30 13 C 1.590734 -1.345563 -1.844647 0
M  V30 14 S 0.904652 -2.061036 -3.190442 0
M  V30 15 N 2.861259 -1.728616 -1.511098 0
M  V30 16 C 3.618228 -1.564447 -0.332700 0
M  V30 17 C 4.979585 -1.882323 -0.401623 0
M  V30 18 C 5.816721 -1.753888 0.720213 0
M  V30 19 C 7.282712 -2.102999 0.620888 0
M  V30 20 F 7.807216 -1.847675 -0.609552 0
M  V30 21 F 7.515873 -3.420898 0.863665 0
M  V30 22 F 8.054876 -1.413666 1.505427 0
M  V30 23 C 5.260960 -1.331475 1.937015 0
M  V30 24 C 3.892298 -1.042577 2.037149 0
M  V30 25 C 3.294667 -0.585623 3.346771 0
M  V30 26 F 3.831521 -1.221844 4.423755 0
M  V30 27 F 1.948693 -0.788539 3.426437 0
M  V30 28 F 3.484299 0.744638 3.562225 0
M  V30 29 C 3.085007 -1.162510 0.893211 0
M  V30 30 C -1.431322 -0.694964 -0.789971 0
M  V30 31 C -1.295242 -1.323119 0.463411 0
M  V30 32 C -2.296719 -2.148814 0.953540 0
M  V30 33 C -2.210189 -2.843790 2.258191 0
M  V30 34 C -2.898365 -4.057275 2.468574 0
M  V30 35 C -2.828190 -4.737911 3.687864 0
M  V30 36 C -2.068182 -4.210215 4.720370 0
M  V30 37 F -1.997800 -4.858604 5.890066 0
M  V30 38 C -1.381992 -3.015469 4.556985 0
M  V30 39 C -1.454894 -2.336381 3.335610 0
M  V30 40 N -3.425117 -2.368004 0.243351 0
M  V30 41 C -3.575131 -1.791656 -0.958246 0
M  V30 42 C -4.751031 -2.054031 -1.642187 0
M  V30 43 C -5.008388 -1.511239 -2.901128 0
M  V30 44 C -4.070271 -0.690073 -3.510091 0
M  V30 45 O -4.426981 -0.226650 -4.744837 0
M  V30 46 C -3.428632 0.457211 -5.492010 0
M  V30 47 C -2.883579 -0.404685 -2.833082 0
M  V30 48 C -2.609823 -0.941340 -1.544417 0
M  V30 49 H -1.009715 6.522468 1.935331 0
M  V30 50 H -2.056231 5.547449 3.116244 0
M  V30 51 H -1.561539 3.500069 1.943355 0
M  V30 52 H 0.190401 5.364522 0.192724 0
M  V30 53 H 1.892082 3.932721 0.524883 0
M  V30 54 H 0.923920 2.903953 1.544369 0
M  V30 55 H 2.088403 3.494189 -1.859852 0
M  V30 56 H 1.147453 2.238476 -2.613767 0
M  V30 57 H 0.408964 5.005862 -2.192530 0
M  V30 58 H -0.512923 3.752748 -3.024609 0
M  V30 59 H -1.845975 4.648858 -1.111529 0
M  V30 60 H -1.943968 2.223781 -1.788784 0
M  V30 61 H -2.319594 2.426839 -0.083755 0
M  V30 62 H -0.473581 1.308557 0.627760 0
M  V30 63 H -0.389727 0.476089 -2.312193 0
M  V30 64 H 1.686092 0.302778 -0.736894 0
M  V30 65 H 3.292530 -2.289652 -2.239587 0
M  V30 66 H 5.412024 -2.218619 -1.343982 0
M  V30 67 H 5.897790 -1.236519 2.818512 0
M  V30 68 H 2.021452 -0.977937 1.004947 0
M  V30 69 H -0.388903 -1.172667 1.040397 0
M  V30 70 H -3.498685 -4.483780 1.665330 0
M  V30 71 H -3.362432 -5.671294 3.831304 0
M  V30 72 H -0.797811 -2.614571 5.379224 0
M  V30 73 H -0.920749 -1.392983 3.248373 0
M  V30 74 H -5.492668 -2.704436 -1.183786 0
M  V30 75 H -5.941646 -1.742929 -3.407897 0
M  V30 76 H -3.169086 1.409645 -5.018376 0
M  V30 77 H -2.541096 -0.168093 -5.636158 0
M  V30 78 H -3.843763 0.679277 -6.479797 0
M  V30 79 H -2.153247 0.236097 -3.309572 0
M  V30 END ATOM
M  V30 BEGIN BOND
M  V30 1 2 1 2
M  V30 2 1 2 3
M  V30 3 1 3 4
M  V30 4 1 4 5
M  V30 5 1 5 6
M  V30 6 1 6 7
M  V30 7 1 7 8
M  V30 8 1 8 9
M  V30 9 1 9 10
M  V30 10 1 10 11
M  V30 11 1 11 12
M  V30 12 1 12 13
M  V30 13 2 13 14
M  V30 14 1 13 15
M  V30 15 1 15 16
M  V30 16 2 16 17
M  V30 17 1 17 18
M  V30 18 1 18 19
M  V30 19 1 19 20
M  V30 20 1 19 21
M  V30 21 1 19 22
M  V30 22 2 18 23
M  V30 23 1 23 24
M  V30 24 1 24 25
M  V30 25 1 25 26
M  V30 26 1 25 27
M  V30 27 1 25 28
M  V30 28 2 24 29
M  V30 29 1 11 30
M  V30 30 2 30 31
M  V30 31 1 31 32
M  V30 32 1 32 33
M  V30 33 2 33 34
M  V30 34 1 34 35
M  V30 35 2 35 36
M  V30 36 1 36 37
M  V30 37 1 36 38
M  V30 38 2 38 39
M  V30 39 2 32 40
M  V30 40 1 40 41
M  V30 41 2 41 42
M  V30 42 1 42 43
M  V30 43 2 43 44
M  V30 44 1 44 45
M  V30 45 1 45 46
M  V30 46 1 44 47
M  V30 47 2 47 48
M  V30 48 1 8 3
M  V30 49 1 29 16
M  V30 50 1 48 30
M  V30 51 1 10 5
M  V30 52 1 39 33
M  V30 53 1 48 41
M  V30 54 1 1 49
M  V30 55 1 1 50
M  V30 56 1 2 51
M  V30 57 1 3 52 CFG=3
M  V30 58 1 4 53
M  V30 59 1 4 54
M  V30 60 1 6 55
M  V30 61 1 6 56
M  V30 62 1 7 57
M  V30 63 1 7 58
M  V30 64 1 8 59 CFG=3
M  V30 65 1 9 60
M  V30 66 1 9 61
M  V30 67 1 10 62 CFG=1
M  V30 68 1 11 63 CFG=3
M  V30 69 1 12 64
M  V30 70 1 15 65
M  V30 71 1 17 66
M  V30 72 1 23 67
M  V30 73 1 29 68
M  V30 74 1 31 69
M  V30 75 1 34 70
M  V30 76 1 35 71
M  V30 77 1 38 72
M  V30 78 1 39 73
M  V30 79 1 42 74
M  V30 80 1 43 75
M  V30 81 1 46 76
M  V30 82 1 46 77
M  V30 83 1 46 78
M  V30 84 1 47 79
M  V30 END BOND
M  V30 END CTAB
M  END
>  <catalyst_id>  (1) 
LLGGAQNTRPJTSO_DSILEPIQSA_NONE

>  <source_smiles>  (1) 
C=C[C@H]1CN2CC[C@H]1C[C@H]2[C@@H](NC(=S)Nc1cc(C(F)(F)F)cc(C(F)(F)F)c1)c1cc(-c2ccc(F)cc2)nc2ccc(OC)cc12

>  <axial_configuration>  (1) 
none

>  <inchikey>  (1) 
LLGGAQNTRPJTSO-DSILEPIQSA-N

>  <build_source>  (1) 
smiles

>  <final_biaryl_angle_deg>  (1) 
-152.39

>  <rdkit_version>  (1) 
2025.09.6

>  <random_seed>  (1) 
42

>  <generated_at>  (1) 
2026-05-19T12:33:04

$$$$
