catalyst172
     RDKit          3D

  0  0  0  0  0  0  0  0  0  0999 V3000
M  V30 BEGIN CTAB
M  V30 COUNTS 50 53 0 0 0
M  V30 BEGIN ATOM
M  V30 1 C 3.253687 0.917923 -2.284044 0
M  V30 2 C 2.301728 -0.141527 -1.744296 0
M  V30 3 C 2.641411 -0.563261 -0.304605 0 CFG=1
M  V30 4 C 2.442952 0.584146 0.714401 0
M  V30 5 N 1.829642 0.112103 1.984260 0
M  V30 6 C 2.621043 -1.059830 2.448610 0
M  V30 7 C 2.458780 -2.258611 1.494689 0
M  V30 8 C 1.813223 -1.777850 0.179874 0 CFG=1
M  V30 9 C 0.379125 -1.308420 0.500861 0
M  V30 10 C 0.424404 -0.370291 1.722742 0 CFG=2
M  V30 11 C -0.661344 0.757426 1.825847 0 CFG=1
M  V30 12 O -0.242545 1.671365 2.861344 0
M  V30 13 C -1.039920 1.539774 0.579728 0
M  V30 14 C -0.410238 2.765729 0.322379 0
M  V30 15 C -0.734058 3.465490 -0.820860 0
M  V30 16 N -1.635550 3.041417 -1.723969 0
M  V30 17 C -2.274118 1.887965 -1.482735 0
M  V30 18 C -3.215872 1.475696 -2.411549 0
M  V30 19 C -3.941438 0.294836 -2.250845 0
M  V30 20 C -3.736241 -0.503999 -1.134405 0
M  V30 21 O -4.506480 -1.631243 -1.086491 0
M  V30 22 C -4.380505 -2.457321 0.063787 0
M  V30 23 C -2.790185 -0.108340 -0.187735 0
M  V30 24 C -2.032226 1.086301 -0.340015 0
M  V30 25 H 4.289548 0.565334 -2.255209 0
M  V30 26 H 3.189485 1.846376 -1.708865 0
M  V30 27 H 3.004949 1.151283 -3.324257 0
M  V30 28 H 1.278155 0.243263 -1.809105 0
M  V30 29 H 2.353483 -1.019520 -2.399291 0
M  V30 30 H 3.700668 -0.858429 -0.292735 0
M  V30 31 H 3.416763 1.038672 0.938713 0
M  V30 32 H 1.846277 1.392867 0.290602 0
M  V30 33 H 2.308158 -1.343887 3.460912 0
M  V30 34 H 3.679234 -0.781992 2.536112 0
M  V30 35 H 1.832426 -3.030617 1.957851 0
M  V30 36 H 3.438339 -2.709571 1.297643 0
M  V30 37 H 1.804321 -2.582235 -0.563004 0
M  V30 38 H -0.044425 -0.830549 -0.383036 0
M  V30 39 H -0.252268 -2.175406 0.730535 0
M  V30 40 H 0.186083 -0.993225 2.600360 0
M  V30 41 H -1.574541 0.311309 2.234573 0
M  V30 42 H 0.709924 1.472870 2.990216 0
M  V30 43 H 0.325855 3.176737 1.006713 0
M  V30 44 H -0.260880 4.416383 -1.047690 0
M  V30 45 H -3.394848 2.094049 -3.288316 0
M  V30 46 H -4.672814 0.006039 -3.001386 0
M  V30 47 H -4.652663 -1.912372 0.973781 0
M  V30 48 H -3.371116 -2.875052 0.139481 0
M  V30 49 H -5.078995 -3.292450 -0.045876 0
M  V30 50 H -2.626393 -0.729353 0.684305 0
M  V30 END ATOM
M  V30 BEGIN BOND
M  V30 1 1 1 2
M  V30 2 1 2 3
M  V30 3 1 3 4
M  V30 4 1 4 5
M  V30 5 1 5 6
M  V30 6 1 6 7
M  V30 7 1 7 8
M  V30 8 1 8 9
M  V30 9 1 9 10
M  V30 10 1 10 11
M  V30 11 1 11 12
M  V30 12 1 11 13
M  V30 13 2 13 14
M  V30 14 1 14 15
M  V30 15 2 15 16
M  V30 16 1 16 17
M  V30 17 2 17 18
M  V30 18 1 18 19
M  V30 19 2 19 20
M  V30 20 1 20 21
M  V30 21 1 21 22
M  V30 22 1 20 23
M  V30 23 2 23 24
M  V30 24 1 8 3
M  V30 25 1 24 13
M  V30 26 1 10 5
M  V30 27 1 24 17
M  V30 28 1 1 25
M  V30 29 1 1 26
M  V30 30 1 1 27
M  V30 31 1 2 28
M  V30 32 1 2 29
M  V30 33 1 3 30 CFG=3
M  V30 34 1 4 31
M  V30 35 1 4 32
M  V30 36 1 6 33
M  V30 37 1 6 34
M  V30 38 1 7 35
M  V30 39 1 7 36
M  V30 40 1 8 37 CFG=3
M  V30 41 1 9 38
M  V30 42 1 9 39
M  V30 43 1 10 40 CFG=1
M  V30 44 1 11 41 CFG=1
M  V30 45 1 12 42
M  V30 46 1 14 43
M  V30 47 1 15 44
M  V30 48 1 18 45
M  V30 49 1 19 46
M  V30 50 1 22 47
M  V30 51 1 22 48
M  V30 52 1 22 49
M  V30 53 1 23 50
M  V30 END BOND
M  V30 END CTAB
M  END
>  <catalyst_id>  (1) 
LJOQGZACKSYWCH_LHHVKLHASA_NONE

>  <source_smiles>  (1) 
CC[C@H]1CN2CC[C@H]1C[C@@H]2[C@@H](O)c1ccnc2ccc(OC)cc12

>  <axial_configuration>  (1) 
none

>  <inchikey>  (1) 
LJOQGZACKSYWCH-LHHVKLHASA-N

>  <build_source>  (1) 
smiles

>  <rdkit_version>  (1) 
2025.09.6

>  <random_seed>  (1) 
42

>  <generated_at>  (1) 
2026-05-19T12:36:56

$$$$
