catalyst405
     RDKit          3D

  0  0  0  0  0  0  0  0  0  0999 V3000
M  V30 BEGIN CTAB
M  V30 COUNTS 59 62 0 0 0
M  V30 BEGIN ATOM
M  V30 1 O 2.569577 3.622774 0.508200 0
M  V30 2 C 1.697528 2.896890 0.094823 0
M  V30 3 C 1.410557 1.451499 -0.093992 0
M  V30 4 N 2.112257 0.370700 0.182450 0
M  V30 5 C 3.479526 0.204837 0.494487 0
M  V30 6 C 3.862521 -0.939231 1.213233 0
M  V30 7 C 5.194396 -1.157468 1.605240 0
M  V30 8 C 5.562532 -2.387231 2.399191 0
M  V30 9 F 6.853179 -2.777898 2.212514 0
M  V30 10 F 5.413902 -2.201519 3.738600 0
M  V30 11 F 4.796940 -3.469214 2.083284 0
M  V30 12 C 6.159294 -0.193965 1.284298 0
M  V30 13 C 5.808297 0.958177 0.565925 0
M  V30 14 C 6.848240 2.002179 0.231493 0
M  V30 15 F 8.086614 1.464850 0.040923 0
M  V30 16 F 6.992099 2.927560 1.217631 0
M  V30 17 F 6.569199 2.695215 -0.906512 0
M  V30 18 C 4.466174 1.146948 0.189299 0
M  V30 19 C 0.151364 1.720647 -0.580511 0
M  V30 20 N -0.924039 1.095547 -1.020306 0
M  V30 21 C -1.177552 -0.344127 -0.881665 0 CFG=2
M  V30 22 C -0.432713 -1.131987 -1.968127 0
M  V30 23 C -0.714204 -2.628194 -1.850517 0
M  V30 24 C -2.208956 -2.932322 -1.890567 0
M  V30 25 C -2.991717 -2.125364 -0.852777 0
M  V30 26 C -2.719380 -0.616450 -1.002487 0 CFG=1
M  V30 27 N -3.508524 0.276852 -0.114916 0
M  V30 28 C -4.923321 0.345681 -0.512252 0
M  V30 29 C -5.660385 1.432655 0.272488 0
M  V30 30 C -5.527725 1.219019 1.775341 0
M  V30 31 C -4.062451 1.058730 2.161993 0
M  V30 32 C -3.377426 -0.018999 1.318214 0
M  V30 33 C 0.353334 3.185545 -0.448508 0
M  V30 34 O -0.250736 4.209764 -0.650245 0
M  V30 35 H 1.644767 -0.531507 0.119375 0
M  V30 36 H 3.108994 -1.676187 1.491127 0
M  V30 37 H 7.195402 -0.340802 1.594470 0
M  V30 38 H 4.218271 2.041147 -0.378018 0
M  V30 39 H -1.814445 1.610998 -1.051039 0
M  V30 40 H -0.829628 -0.679999 0.103847 0
M  V30 41 H 0.647384 -0.964685 -1.901800 0
M  V30 42 H -0.735257 -0.778186 -2.962464 0
M  V30 43 H -0.209459 -3.162244 -2.663508 0
M  V30 44 H -0.291079 -3.004696 -0.910993 0
M  V30 45 H -2.597641 -2.707664 -2.891617 0
M  V30 46 H -2.370448 -4.002903 -1.720655 0
M  V30 47 H -2.705697 -2.469397 0.148437 0
M  V30 48 H -4.058191 -2.342407 -0.976410 0
M  V30 49 H -2.988676 -0.336093 -2.032289 0
M  V30 50 H -5.425227 -0.617354 -0.358837 0
M  V30 51 H -5.003853 0.590392 -1.578176 0
M  V30 52 H -6.719755 1.437770 -0.007964 0
M  V30 53 H -5.254375 2.416851 0.005928 0
M  V30 54 H -6.084144 0.320173 2.068021 0
M  V30 55 H -5.970029 2.062651 2.316342 0
M  V30 56 H -3.541465 2.015511 2.028644 0
M  V30 57 H -3.987550 0.799730 3.224224 0
M  V30 58 H -3.812160 -0.996313 1.561396 0
M  V30 59 H -2.324138 -0.046887 1.615347 0
M  V30 END ATOM
M  V30 BEGIN BOND
M  V30 1 2 1 2
M  V30 2 1 2 3
M  V30 3 1 3 4
M  V30 4 1 4 5
M  V30 5 2 5 6
M  V30 6 1 6 7
M  V30 7 1 7 8
M  V30 8 1 8 9
M  V30 9 1 8 10
M  V30 10 1 8 11
M  V30 11 2 7 12
M  V30 12 1 12 13
M  V30 13 1 13 14
M  V30 14 1 14 15
M  V30 15 1 14 16
M  V30 16 1 14 17
M  V30 17 2 13 18
M  V30 18 2 3 19
M  V30 19 1 19 20
M  V30 20 1 20 21
M  V30 21 1 21 22
M  V30 22 1 22 23
M  V30 23 1 23 24
M  V30 24 1 24 25
M  V30 25 1 25 26
M  V30 26 1 26 27
M  V30 27 1 27 28
M  V30 28 1 28 29
M  V30 29 1 29 30
M  V30 30 1 30 31
M  V30 31 1 31 32
M  V30 32 1 19 33
M  V30 33 2 33 34
M  V30 34 1 33 2
M  V30 35 1 18 5
M  V30 36 1 26 21
M  V30 37 1 32 27
M  V30 38 1 4 35
M  V30 39 1 6 36
M  V30 40 1 12 37
M  V30 41 1 18 38
M  V30 42 1 20 39
M  V30 43 1 21 40 CFG=1
M  V30 44 1 22 41
M  V30 45 1 22 42
M  V30 46 1 23 43
M  V30 47 1 23 44
M  V30 48 1 24 45
M  V30 49 1 24 46
M  V30 50 1 25 47
M  V30 51 1 25 48
M  V30 52 1 26 49 CFG=3
M  V30 53 1 28 50
M  V30 54 1 28 51
M  V30 55 1 29 52
M  V30 56 1 29 53
M  V30 57 1 30 54
M  V30 58 1 30 55
M  V30 59 1 31 56
M  V30 60 1 31 57
M  V30 61 1 32 58
M  V30 62 1 32 59
M  V30 END BOND
M  V30 END CTAB
M  END
>  <catalyst_id>  (1) 
XUZPZFXQOUOXFH_IAGOWNOFSA_NONE

>  <source_smiles>  (1) 
O=c1c(Nc2cc(C(F)(F)F)cc(C(F)(F)F)c2)c(N[C@@H]2CCCC[C@H]2N2CCCCC2)c1=O

>  <axial_configuration>  (1) 
none

>  <inchikey>  (1) 
XUZPZFXQOUOXFH-IAGOWNOFSA-N

>  <build_source>  (1) 
smiles

>  <rdkit_version>  (1) 
2025.09.6

>  <random_seed>  (1) 
42

>  <generated_at>  (1) 
2026-05-19T12:34:38

$$$$
