catalyst402
     RDKit          3D

  0  0  0  0  0  0  0  0  0  0999 V3000
M  V30 BEGIN CTAB
M  V30 COUNTS 30 30 0 0 0
M  V30 BEGIN ATOM
M  V30 1 C -3.321816 -0.364393 0.009080 0
M  V30 2 C -1.952227 0.300486 0.210189 0
M  V30 3 C -1.767175 1.379633 -0.862085 0
M  V30 4 C -1.904613 0.907266 1.618259 0
M  V30 5 O -0.999193 -0.763960 0.087729 0
M  V30 6 C 0.382253 -0.428151 0.099824 0 CFG=1
M  V30 7 C 1.189657 -1.488035 0.862636 0
M  V30 8 N 2.337522 -1.867879 0.022956 0
M  V30 9 C 2.412296 -0.873986 -1.072967 0 CFG=2
M  V30 10 C 3.274358 0.324668 -0.666047 0
M  V30 11 O 3.921631 0.437702 0.364273 0
M  V30 12 O 3.300685 1.300175 -1.595197 0
M  V30 13 C 0.962832 -0.492596 -1.306928 0
M  V30 14 H -3.381473 -0.840936 -0.976455 0
M  V30 15 H -3.482046 -1.159374 0.746840 0
M  V30 16 H -4.141579 0.356666 0.094454 0
M  V30 17 H -1.732815 0.933946 -1.862400 0
M  V30 18 H -2.582489 2.110791 -0.837194 0
M  V30 19 H -0.829902 1.928837 -0.725386 0
M  V30 20 H -0.970004 1.447908 1.797795 0
M  V30 21 H -1.963743 0.122978 2.381416 0
M  V30 22 H -2.728322 1.611367 1.778097 0
M  V30 23 H 0.574656 0.553930 0.545842 0
M  V30 24 H 1.540597 -1.072414 1.814234 0
M  V30 25 H 0.591738 -2.376158 1.092375 0
M  V30 26 H 3.197859 -1.829124 0.575742 0
M  V30 27 H 2.869985 -1.329840 -1.956585 0
M  V30 28 H 3.910337 1.971101 -1.221257 0
M  V30 29 H 0.448275 -1.259562 -1.900143 0
M  V30 30 H 0.842714 0.458951 -1.833438 0
M  V30 END ATOM
M  V30 BEGIN BOND
M  V30 1 1 1 2
M  V30 2 1 2 3
M  V30 3 1 2 4
M  V30 4 1 2 5
M  V30 5 1 5 6
M  V30 6 1 6 7
M  V30 7 1 7 8
M  V30 8 1 8 9
M  V30 9 1 9 10
M  V30 10 2 10 11
M  V30 11 1 10 12
M  V30 12 1 9 13
M  V30 13 1 13 6
M  V30 14 1 1 14
M  V30 15 1 1 15
M  V30 16 1 1 16
M  V30 17 1 3 17
M  V30 18 1 3 18
M  V30 19 1 3 19
M  V30 20 1 4 20
M  V30 21 1 4 21
M  V30 22 1 4 22
M  V30 23 1 6 23 CFG=1
M  V30 24 1 7 24
M  V30 25 1 7 25
M  V30 26 1 8 26
M  V30 27 1 9 27 CFG=3
M  V30 28 1 12 28
M  V30 29 1 13 29
M  V30 30 1 13 30
M  V30 END BOND
M  V30 END CTAB
M  END
>  <catalyst_id>  (1) 
XTQZONYRNXFGCY_RQJHMYQMSA_NONE

>  <source_smiles>  (1) 
CC(C)(C)O[C@H]1CN[C@H](C(=O)O)C1

>  <axial_configuration>  (1) 
none

>  <inchikey>  (1) 
XTQZONYRNXFGCY-RQJHMYQMSA-N

>  <build_source>  (1) 
smiles

>  <rdkit_version>  (1) 
2025.09.6

>  <random_seed>  (1) 
42

>  <generated_at>  (1) 
2026-05-19T12:29:44

$$$$
