catalyst203
     RDKit          3D

  0  0  0  0  0  0  0  0  0  0999 V3000
M  V30 BEGIN CTAB
M  V30 COUNTS 83 85 0 0 0
M  V30 BEGIN ATOM
M  V30 1 C 4.046452 3.767766 3.268884 0
M  V30 2 C 4.062139 2.349346 3.749412 0
M  V30 3 O 4.471566 1.992943 4.844840 0
M  V30 4 O 3.565995 1.526758 2.787057 0
M  V30 5 C 3.523087 0.137864 3.155975 0
M  V30 6 C 3.134693 -0.714988 1.938030 0 CFG=1
M  V30 7 O 1.773890 -0.427805 1.595884 0
M  V30 8 C 1.293760 -1.292642 0.571205 0 CFG=1
M  V30 9 N -0.138753 -1.073142 0.481430 0
M  V30 10 C -1.068409 -1.526723 1.366807 0
M  V30 11 S -0.773196 -2.510041 2.687690 0
M  V30 12 N -2.353066 -1.153463 1.159654 0
M  V30 13 C -2.964980 -0.264389 0.154518 0 CFG=1
M  V30 14 C -3.171371 -1.001594 -1.168898 0
M  V30 15 C -3.506873 -2.365837 -1.208828 0
M  V30 16 C -3.747615 -3.009144 -2.424690 0
M  V30 17 C -3.667006 -2.297493 -3.618640 0
M  V30 18 C -3.340578 -0.944053 -3.597581 0
M  V30 19 C -3.093190 -0.301303 -2.382687 0
M  V30 20 C -4.349253 0.306065 0.694823 0 CFG=2
M  V30 21 C -4.845719 1.524722 -0.089225 0
M  V30 22 C -6.139546 1.511281 -0.639852 0
M  V30 23 C -6.620466 2.599857 -1.369923 0
M  V30 24 C -5.817236 3.720535 -1.561210 0
M  V30 25 C -4.533720 3.753475 -1.022725 0
M  V30 26 C -4.051091 2.664849 -0.292586 0
M  V30 27 N -4.377431 0.465085 2.182863 0
M  V30 28 C -5.730650 0.652021 2.704354 0
M  V30 29 C -3.478720 1.486974 2.712962 0
M  V30 30 C 2.052294 -0.979509 -0.729713 0 CFG=2
M  V30 31 O 1.612284 -1.842021 -1.802338 0
M  V30 32 C 0.595133 -1.341612 -2.555885 0
M  V30 33 C 0.208867 -2.318038 -3.622370 0
M  V30 34 O 0.060241 -0.256886 -2.371013 0
M  V30 35 C 3.554605 -1.221980 -0.506086 0 CFG=1
M  V30 36 O 4.231506 -0.739496 -1.697181 0
M  V30 37 C 5.334117 -1.420671 -2.104658 0
M  V30 38 C 5.902731 -0.786425 -3.336297 0
M  V30 39 O 5.806850 -2.402203 -1.549867 0
M  V30 40 C 4.061132 -0.457522 0.734996 0 CFG=2
M  V30 41 O 5.379504 -0.919649 1.105440 0
M  V30 42 C 6.439351 -0.192370 0.661449 0
M  V30 43 C 7.718588 -0.807893 1.138437 0
M  V30 44 O 6.370411 0.813734 -0.029350 0
M  V30 45 H 4.431158 4.421640 4.056750 0
M  V30 46 H 4.686364 3.867412 2.388565 0
M  V30 47 H 3.021960 4.069302 3.036648 0
M  V30 48 H 2.771935 0.016917 3.945302 0
M  V30 49 H 4.504120 -0.176336 3.531302 0
M  V30 50 H 3.203214 -1.765836 2.251172 0
M  V30 51 H 1.451784 -2.342481 0.848297 0
M  V30 52 H -0.446675 -0.456785 -0.259936 0
M  V30 53 H -2.981754 -1.402072 1.918309 0
M  V30 54 H -2.252053 0.553117 0.000601 0
M  V30 55 H -3.588102 -2.940038 -0.287907 0
M  V30 56 H -4.005573 -4.064965 -2.436252 0
M  V30 57 H -3.861238 -2.796076 -4.564338 0
M  V30 58 H -3.277406 -0.383526 -4.526672 0
M  V30 59 H -2.837681 0.756566 -2.394118 0
M  V30 60 H -5.067242 -0.505664 0.500620 0
M  V30 61 H -6.783711 0.644226 -0.507150 0
M  V30 62 H -7.622324 2.570741 -1.790391 0
M  V30 63 H -6.191530 4.567943 -2.129338 0
M  V30 64 H -3.906122 4.628747 -1.170177 0
M  V30 65 H -3.045428 2.723096 0.116256 0
M  V30 66 H -6.165315 1.615055 2.415612 0
M  V30 67 H -5.725701 0.600191 3.799144 0
M  V30 68 H -6.396184 -0.147926 2.361663 0
M  V30 69 H -2.459783 1.378065 2.329306 0
M  V30 70 H -3.823033 2.504053 2.499245 0
M  V30 71 H -3.405194 1.387760 3.802209 0
M  V30 72 H 1.925856 0.076138 -1.008785 0
M  V30 73 H -0.401537 -1.810841 -4.374214 0
M  V30 74 H 1.103821 -2.700290 -4.120873 0
M  V30 75 H -0.361415 -3.138536 -3.181346 0
M  V30 76 H 3.734394 -2.299719 -0.397610 0
M  V30 77 H 5.160317 -0.802961 -4.138142 0
M  V30 78 H 6.780134 -1.351920 -3.662822 0
M  V30 79 H 6.210182 0.239015 -3.116795 0
M  V30 80 H 4.073886 0.614363 0.499306 0
M  V30 81 H 7.810608 -1.823543 0.745722 0
M  V30 82 H 7.741816 -0.813503 2.231037 0
M  V30 83 H 8.563125 -0.215711 0.774691 0
M  V30 END ATOM
M  V30 BEGIN BOND
M  V30 1 1 1 2
M  V30 2 2 2 3
M  V30 3 1 2 4
M  V30 4 1 4 5
M  V30 5 1 5 6
M  V30 6 1 6 7
M  V30 7 1 7 8
M  V30 8 1 8 9
M  V30 9 1 9 10
M  V30 10 2 10 11
M  V30 11 1 10 12
M  V30 12 1 12 13
M  V30 13 1 13 14
M  V30 14 2 14 15
M  V30 15 1 15 16
M  V30 16 2 16 17
M  V30 17 1 17 18
M  V30 18 2 18 19
M  V30 19 1 13 20
M  V30 20 1 20 21
M  V30 21 2 21 22
M  V30 22 1 22 23
M  V30 23 2 23 24
M  V30 24 1 24 25
M  V30 25 2 25 26
M  V30 26 1 20 27
M  V30 27 1 27 28
M  V30 28 1 27 29
M  V30 29 1 8 30
M  V30 30 1 30 31
M  V30 31 1 31 32
M  V30 32 1 32 33
M  V30 33 2 32 34
M  V30 34 1 30 35
M  V30 35 1 35 36
M  V30 36 1 36 37
M  V30 37 1 37 38
M  V30 38 2 37 39
M  V30 39 1 35 40
M  V30 40 1 40 41
M  V30 41 1 41 42
M  V30 42 1 42 43
M  V30 43 2 42 44
M  V30 44 1 40 6
M  V30 45 1 19 14
M  V30 46 1 26 21
M  V30 47 1 1 45
M  V30 48 1 1 46
M  V30 49 1 1 47
M  V30 50 1 5 48
M  V30 51 1 5 49
M  V30 52 1 6 50 CFG=1
M  V30 53 1 8 51 CFG=1
M  V30 54 1 9 52
M  V30 55 1 12 53
M  V30 56 1 13 54 CFG=3
M  V30 57 1 15 55
M  V30 58 1 16 56
M  V30 59 1 17 57
M  V30 60 1 18 58
M  V30 61 1 19 59
M  V30 62 1 20 60 CFG=1
M  V30 63 1 22 61
M  V30 64 1 23 62
M  V30 65 1 24 63
M  V30 66 1 25 64
M  V30 67 1 26 65
M  V30 68 1 28 66
M  V30 69 1 28 67
M  V30 70 1 28 68
M  V30 71 1 29 69
M  V30 72 1 29 70
M  V30 73 1 29 71
M  V30 74 1 30 72 CFG=3
M  V30 75 1 33 73
M  V30 76 1 33 74
M  V30 77 1 33 75
M  V30 78 1 35 76 CFG=1
M  V30 79 1 38 77
M  V30 80 1 38 78
M  V30 81 1 38 79
M  V30 82 1 40 80 CFG=3
M  V30 83 1 43 81
M  V30 84 1 43 82
M  V30 85 1 43 83
M  V30 END BOND
M  V30 END CTAB
M  END
>  <catalyst_id>  (1) 
MQXPBYRFIRMIOX_MGBQRRGGSA_NONE

>  <source_smiles>  (1) 
CC(=O)OC[C@H]1O[C@@H](NC(=S)N[C@@H](c2ccccc2)[C@H](c2ccccc2)N(C)C)[C@H](OC(C)=O)[C@@H](OC(C)=O)[C@@H]1OC(C)=O

>  <axial_configuration>  (1) 
none

>  <inchikey>  (1) 
MQXPBYRFIRMIOX-MGBQRRGGSA-N

>  <build_source>  (1) 
smiles

>  <rdkit_version>  (1) 
2025.09.6

>  <random_seed>  (1) 
42

>  <generated_at>  (1) 
2026-05-19T12:33:26

$$$$
