catalyst291
     RDKit          3D

  0  0  0  0  0  0  0  0  0  0999 V3000
M  V30 BEGIN CTAB
M  V30 COUNTS 33 36 0 0 0
M  V30 BEGIN ATOM
M  V30 1 C -3.185979 2.023323 -0.050815 0
M  V30 2 C -3.134910 1.399654 1.193923 0
M  V30 3 C -2.762884 0.057326 1.289502 0
M  V30 4 C -2.433330 -0.674609 0.139599 0
M  V30 5 C -2.018265 -2.125318 0.241993 0
M  V30 6 C -0.522179 -2.422379 0.032286 0 CFG=2
M  V30 7 C 0.437577 -1.588085 0.937988 0
M  V30 8 N 1.106501 -0.811163 -0.056350 0
M  V30 9 C 0.766801 -1.249710 -1.298468 0
M  V30 10 N -0.130257 -2.183378 -1.418301 0
M  V30 11 S 1.672763 -0.455771 -2.566436 0
M  V30 12 C 2.587735 0.453248 -1.309789 0
M  V30 13 C 3.612398 1.362993 -1.505139 0
M  V30 14 C 4.197406 1.937867 -0.376334 0
M  V30 15 C 3.753859 1.595365 0.911748 0
M  V30 16 C 2.716670 0.672418 1.094311 0
M  V30 17 C 2.129438 0.098472 -0.019073 0
M  V30 18 C -2.501527 -0.038337 -1.106964 0
M  V30 19 C -2.870956 1.303995 -1.201184 0
M  V30 20 H -3.474219 3.068274 -0.125794 0
M  V30 21 H -3.386865 1.959180 2.090807 0
M  V30 22 H -2.733938 -0.411248 2.270182 0
M  V30 23 H -2.310111 -2.507872 1.228889 0
M  V30 24 H -2.609055 -2.700444 -0.483296 0
M  V30 25 H -0.358623 -3.488574 0.235420 0
M  V30 26 H -0.077892 -0.978726 1.684397 0
M  V30 27 H 1.142185 -2.252664 1.450336 0
M  V30 28 H 3.952031 1.620138 -2.502563 0
M  V30 29 H 5.004522 2.657611 -0.494118 0
M  V30 30 H 4.222109 2.056316 1.779025 0
M  V30 31 H 2.381594 0.423358 2.095443 0
M  V30 32 H -2.260808 -0.587167 -2.016065 0
M  V30 33 H -2.911790 1.785908 -2.174440 0
M  V30 END ATOM
M  V30 BEGIN BOND
M  V30 1 2 1 2
M  V30 2 1 2 3
M  V30 3 2 3 4
M  V30 4 1 4 5
M  V30 5 1 5 6
M  V30 6 1 6 7
M  V30 7 1 7 8
M  V30 8 1 8 9
M  V30 9 2 9 10
M  V30 10 1 9 11
M  V30 11 1 11 12
M  V30 12 2 12 13
M  V30 13 1 13 14
M  V30 14 2 14 15
M  V30 15 1 15 16
M  V30 16 2 16 17
M  V30 17 1 4 18
M  V30 18 2 18 19
M  V30 19 1 19 1
M  V30 20 1 10 6
M  V30 21 1 17 12
M  V30 22 1 17 8
M  V30 23 1 1 20
M  V30 24 1 2 21
M  V30 25 1 3 22
M  V30 26 1 5 23
M  V30 27 1 5 24
M  V30 28 1 6 25 CFG=1
M  V30 29 1 7 26
M  V30 30 1 7 27
M  V30 31 1 13 28
M  V30 32 1 14 29
M  V30 33 1 15 30
M  V30 34 1 16 31
M  V30 35 1 18 32
M  V30 36 1 19 33
M  V30 END BOND
M  V30 END CTAB
M  END
>  <catalyst_id>  (1) 
QYOVGGRICFJFEJ_CYBMUJFWSA_NONE

>  <source_smiles>  (1) 
c1ccc(C[C@@H]2CN3C(=N2)Sc2ccccc23)cc1

>  <axial_configuration>  (1) 
none

>  <inchikey>  (1) 
QYOVGGRICFJFEJ-CYBMUJFWSA-N

>  <build_source>  (1) 
smiles

>  <rdkit_version>  (1) 
2025.09.6

>  <random_seed>  (1) 
42

>  <generated_at>  (1) 
2026-05-19T12:37:18

$$$$
