catalyst392
     RDKit          3D

  0  0  0  0  0  0  0  0  0  0999 V3000
M  V30 BEGIN CTAB
M  V30 COUNTS 79 81 0 0 0
M  V30 BEGIN ATOM
M  V30 1 C 1.787005 0.203098 -3.750563 0
M  V30 2 C 0.278937 0.022240 -3.465027 0
M  V30 3 C -0.414070 1.345985 -3.854841 0
M  V30 4 C -0.256062 -1.093833 -4.382991 0
M  V30 5 C 0.043916 -0.303686 -1.942227 0 CFG=1
M  V30 6 C -1.433656 -0.508335 -1.569640 0
M  V30 7 P -1.866875 -0.534095 0.191472 0 CHG=1
M  V30 8 C -1.146256 0.968194 0.899972 0
M  V30 9 C -1.337544 2.286825 0.190156 0
M  V30 10 C -2.612909 2.760543 -0.135770 0
M  V30 11 C -2.771480 3.984740 -0.788744 0
M  V30 12 C -1.657999 4.757979 -1.107568 0
M  V30 13 C -0.384526 4.312449 -0.764423 0
M  V30 14 C -0.225755 3.087462 -0.114333 0
M  V30 15 C -3.629475 -0.515885 0.409934 0
M  V30 16 C -4.519436 -0.586712 -0.667788 0
M  V30 17 C -5.899849 -0.566521 -0.455367 0
M  V30 18 C -6.407503 -0.482561 0.838566 0
M  V30 19 C -5.534927 -0.423614 1.921301 0
M  V30 20 C -4.156161 -0.442992 1.707346 0
M  V30 21 C -1.239297 -1.990742 0.977331 0
M  V30 22 C -0.464394 -1.933123 2.141422 0
M  V30 23 C -0.011832 -3.102546 2.756439 0
M  V30 24 C -0.332067 -4.344876 2.215885 0
M  V30 25 C -1.112317 -4.418745 1.065466 0
M  V30 26 C -1.566556 -3.249313 0.454427 0
M  V30 27 N 0.823164 -1.482311 -1.540142 0
M  V30 28 C 1.934581 -1.588504 -0.749521 0
M  V30 29 S 2.556967 -3.124700 -0.535864 0
M  V30 30 N 2.432174 -0.404681 -0.268786 0
M  V30 31 C 3.257512 -0.143629 0.843954 0
M  V30 32 C 3.359679 -0.991779 1.947161 0
M  V30 33 C 4.155921 -0.651994 3.054098 0
M  V30 34 C 4.253027 -1.596570 4.228626 0
M  V30 35 F 5.131379 -2.611584 4.010859 0
M  V30 36 F 3.062658 -2.182474 4.537791 0
M  V30 37 F 4.667761 -0.981240 5.371807 0
M  V30 38 C 4.862538 0.559839 3.038481 0
M  V30 39 C 4.762682 1.434022 1.946100 0
M  V30 40 C 5.490515 2.756697 1.946207 0
M  V30 41 F 4.730197 3.759278 2.464464 0
M  V30 42 F 5.848189 3.165985 0.697403 0
M  V30 43 F 6.638619 2.736791 2.676756 0
M  V30 44 C 3.940792 1.077665 0.863692 0
M  V30 45 Br 0.000000 0.000000 0.000000 0 CHG=-1
M  V30 46 H 2.216489 0.989571 -3.120567 0
M  V30 47 H 1.959622 0.489602 -4.794722 0
M  V30 48 H 2.349826 -0.719836 -3.577307 0
M  V30 49 H -0.152633 1.640781 -4.878106 0
M  V30 50 H -1.504858 1.268769 -3.821023 0
M  V30 51 H -0.108623 2.160919 -3.190601 0
M  V30 52 H -0.055647 -0.864214 -5.436166 0
M  V30 53 H -1.339156 -1.217080 -4.281686 0
M  V30 54 H 0.216252 -2.057332 -4.165049 0
M  V30 55 H 0.407220 0.551396 -1.371283 0
M  V30 56 H -1.806554 -1.438562 -2.012416 0
M  V30 57 H -2.026301 0.304771 -1.995668 0
M  V30 58 H -0.069856 0.779454 0.987108 0
M  V30 59 H -1.510251 1.085474 1.927736 0
M  V30 60 H -3.502746 2.193098 0.122622 0
M  V30 61 H -3.768717 4.338219 -1.038703 0
M  V30 62 H -1.784913 5.713110 -1.610192 0
M  V30 63 H 0.484239 4.922946 -0.996321 0
M  V30 64 H 0.776289 2.764806 0.158349 0
M  V30 65 H -4.154129 -0.659399 -1.687384 0
M  V30 66 H -6.579701 -0.620616 -1.301735 0
M  V30 67 H -7.481473 -0.470706 1.003435 0
M  V30 68 H -5.925925 -0.368795 2.933842 0
M  V30 69 H -3.487395 -0.409559 2.564468 0
M  V30 70 H -0.204675 -0.979769 2.590612 0
M  V30 71 H 0.593510 -3.044078 3.657700 0
M  V30 72 H 0.025454 -5.254165 2.691211 0
M  V30 73 H -1.369975 -5.387201 0.645577 0
M  V30 74 H -2.192314 -3.324600 -0.431137 0
M  V30 75 H 0.487353 -2.385654 -1.860471 0
M  V30 76 H 2.331627 0.362852 -0.916662 0
M  V30 77 H 2.793506 -1.919051 1.990424 0
M  V30 78 H 5.490224 0.829384 3.889861 0
M  V30 79 H 3.856964 1.762716 0.020733 0
M  V30 END ATOM
M  V30 BEGIN BOND
M  V30 1 1 1 2
M  V30 2 1 2 3
M  V30 3 1 2 4
M  V30 4 1 2 5
M  V30 5 1 5 6
M  V30 6 1 6 7
M  V30 7 1 7 8
M  V30 8 1 8 9
M  V30 9 2 9 10
M  V30 10 1 10 11
M  V30 11 2 11 12
M  V30 12 1 12 13
M  V30 13 2 13 14
M  V30 14 1 7 15
M  V30 15 2 15 16
M  V30 16 1 16 17
M  V30 17 2 17 18
M  V30 18 1 18 19
M  V30 19 2 19 20
M  V30 20 1 7 21
M  V30 21 2 21 22
M  V30 22 1 22 23
M  V30 23 2 23 24
M  V30 24 1 24 25
M  V30 25 2 25 26
M  V30 26 1 5 27
M  V30 27 1 27 28
M  V30 28 2 28 29
M  V30 29 1 28 30
M  V30 30 1 30 31
M  V30 31 2 31 32
M  V30 32 1 32 33
M  V30 33 1 33 34
M  V30 34 1 34 35
M  V30 35 1 34 36
M  V30 36 1 34 37
M  V30 37 2 33 38
M  V30 38 1 38 39
M  V30 39 1 39 40
M  V30 40 1 40 41
M  V30 41 1 40 42
M  V30 42 1 40 43
M  V30 43 2 39 44
M  V30 44 1 14 9
M  V30 45 1 20 15
M  V30 46 1 26 21
M  V30 47 1 44 31
M  V30 48 1 1 46
M  V30 49 1 1 47
M  V30 50 1 1 48
M  V30 51 1 3 49
M  V30 52 1 3 50
M  V30 53 1 3 51
M  V30 54 1 4 52
M  V30 55 1 4 53
M  V30 56 1 4 54
M  V30 57 1 5 55 CFG=1
M  V30 58 1 6 56
M  V30 59 1 6 57
M  V30 60 1 8 58
M  V30 61 1 8 59
M  V30 62 1 10 60
M  V30 63 1 11 61
M  V30 64 1 12 62
M  V30 65 1 13 63
M  V30 66 1 14 64
M  V30 67 1 16 65
M  V30 68 1 17 66
M  V30 69 1 18 67
M  V30 70 1 19 68
M  V30 71 1 20 69
M  V30 72 1 22 70
M  V30 73 1 23 71
M  V30 74 1 24 72
M  V30 75 1 25 73
M  V30 76 1 26 74
M  V30 77 1 27 75
M  V30 78 1 30 76
M  V30 79 1 32 77
M  V30 80 1 38 78
M  V30 81 1 44 79
M  V30 END BOND
M  V30 END CTAB
M  END
>  <catalyst_id>  (1) 
WYWHKHDYDYHHSV_VNUFCWELSA_NONE

>  <source_smiles>  (1) 
CC(C)(C)[C@@H](C[P+](Cc1ccccc1)(c1ccccc1)c1ccccc1)NC(=S)Nc1cc(C(F)(F)F)cc(C(F)(F)F)c1.[Br-]

>  <axial_configuration>  (1) 
none

>  <inchikey>  (1) 
WYWHKHDYDYHHSV-VNUFCWELSA-N

>  <build_source>  (1) 
smiles

>  <rdkit_version>  (1) 
2025.09.6

>  <random_seed>  (1) 
42

>  <generated_at>  (1) 
2026-05-19T12:37:00

$$$$
