catalyst396
     RDKit          3D

  0  0  0  0  0  0  0  0  0  0999 V3000
M  V30 BEGIN CTAB
M  V30 COUNTS 88 95 0 0 0
M  V30 BEGIN ATOM
M  V30 1 F 5.738487 4.483741 3.885254 0
M  V30 2 C 5.605490 4.547268 2.533145 0
M  V30 3 F 6.518567 5.466937 2.110578 0
M  V30 4 F 4.385894 5.103898 2.295853 0
M  V30 5 C 5.780967 3.200366 1.871832 0
M  V30 6 C 4.693889 2.312539 1.782438 0
M  V30 7 C 4.837637 1.055947 1.194215 0
M  V30 8 N 3.788185 0.128134 1.036922 0
M  V30 9 C 2.603323 -0.029521 1.709421 0
M  V30 10 S 2.153109 0.595558 3.189699 0
M  V30 11 N 1.693118 -0.843397 1.088802 0
M  V30 12 C 1.569504 -1.122086 -0.360208 0 CFG=1
M  V30 13 C 2.629262 -2.120251 -0.817550 0
M  V30 14 C 3.371271 -1.877699 -1.984395 0
M  V30 15 C 4.354929 -2.776046 -2.400601 0
M  V30 16 C 4.609443 -3.926671 -1.657920 0
M  V30 17 C 3.879544 -4.182854 -0.499663 0
M  V30 18 C 2.894271 -3.287442 -0.082177 0
M  V30 19 C 0.104412 -1.635987 -0.692776 0 CFG=2
M  V30 20 C -0.239160 -1.675579 -2.181183 0
M  V30 21 C 0.133888 -0.661297 -3.076670 0
M  V30 22 C -0.194561 -0.741595 -4.432852 0
M  V30 23 C -0.903607 -1.836509 -4.917283 0
M  V30 24 C -1.283794 -2.853154 -4.047207 0
M  V30 25 C -0.953426 -2.774057 -2.692876 0
M  V30 26 N -0.912410 -0.971292 0.166385 0
M  V30 27 C -2.121138 -1.778793 0.378347 0
M  V30 28 C -3.004828 -1.189251 1.461110 0
M  V30 29 C -3.028446 -1.770117 2.732853 0
M  V30 30 C -3.747224 -1.172307 3.762748 0
M  V30 31 C -4.416450 0.040644 3.562986 0
M  V30 32 C -5.086319 0.649001 4.638206 0
M  V30 33 C -5.723503 1.878385 4.486523 0
M  V30 34 C -5.689767 2.520617 3.258002 0
M  V30 35 C -5.032458 1.923792 2.179366 0
M  V30 36 C -4.398174 0.660650 2.287055 0
M  V30 37 C -3.729725 0.002886 1.203921 0
M  V30 38 C -3.695243 0.559267 -0.183708 0
M  V30 39 C -2.429171 0.844548 -0.766237 0
M  V30 40 C -2.367495 1.456083 -2.022271 0
M  V30 41 C -3.529704 1.720432 -2.740315 0
M  V30 42 C -4.782881 1.355571 -2.238840 0
M  V30 43 C -5.933989 1.580816 -3.013163 0
M  V30 44 C -7.193523 1.197654 -2.558257 0
M  V30 45 C -7.316174 0.575796 -1.325007 0
M  V30 46 C -6.180000 0.352110 -0.543411 0
M  V30 47 C -4.885122 0.751425 -0.960649 0
M  V30 48 C -1.140741 0.470771 -0.048417 0
M  V30 49 C 6.081219 0.699405 0.656487 0
M  V30 50 C 7.189469 1.557384 0.747942 0
M  V30 51 C 8.517374 1.147810 0.158802 0
M  V30 52 F 8.763543 -0.186138 0.278476 0
M  V30 53 F 8.595823 1.425201 -1.171482 0
M  V30 54 F 9.577728 1.776284 0.737068 0
M  V30 55 C 7.027578 2.807957 1.360526 0
M  V30 56 H 3.729477 2.649677 2.152961 0
M  V30 57 H 4.026197 -0.683761 0.480543 0
M  V30 58 H 0.794103 -0.857606 1.568012 0
M  V30 59 H 1.756709 -0.157895 -0.847094 0
M  V30 60 H 3.189233 -0.987230 -2.582335 0
M  V30 61 H 4.920096 -2.581006 -3.308822 0
M  V30 62 H 5.374201 -4.626980 -1.984461 0
M  V30 63 H 4.077243 -5.081382 0.079740 0
M  V30 64 H 2.339174 -3.500432 0.829944 0
M  V30 65 H 0.119506 -2.685508 -0.361302 0
M  V30 66 H 0.676312 0.216100 -2.736988 0
M  V30 67 H 0.098612 0.055450 -5.111273 0
M  V30 68 H -1.162736 -1.896584 -5.970861 0
M  V30 69 H -1.839672 -3.709118 -4.421038 0
M  V30 70 H -1.260737 -3.584587 -2.035156 0
M  V30 71 H -1.832605 -2.790750 0.691800 0
M  V30 72 H -2.703262 -1.916940 -0.541293 0
M  V30 73 H -2.469858 -2.680607 2.935794 0
M  V30 74 H -3.746560 -1.646213 4.742303 0
M  V30 75 H -5.105743 0.170644 5.615385 0
M  V30 76 H -6.231303 2.337503 5.330165 0
M  V30 77 H -6.168717 3.487925 3.132077 0
M  V30 78 H -5.015021 2.470754 1.238794 0
M  V30 79 H -1.410803 1.721308 -2.462911 0
M  V30 80 H -3.442173 2.187135 -3.719212 0
M  V30 81 H -5.855464 2.052495 -3.990543 0
M  V30 82 H -8.072724 1.375390 -3.171242 0
M  V30 83 H -8.291631 0.259952 -0.964873 0
M  V30 84 H -6.319689 -0.153125 0.410375 0
M  V30 85 H -0.286179 0.933427 -0.555506 0
M  V30 86 H -1.149449 0.966457 0.932231 0
M  V30 87 H 6.206461 -0.269502 0.172315 0
M  V30 88 H 7.878112 3.488177 1.433031 0
M  V30 END ATOM
M  V30 BEGIN BOND
M  V30 1 1 1 2
M  V30 2 1 2 3
M  V30 3 1 2 4
M  V30 4 1 2 5
M  V30 5 2 5 6
M  V30 6 1 6 7
M  V30 7 1 7 8
M  V30 8 1 8 9
M  V30 9 2 9 10
M  V30 10 1 9 11
M  V30 11 1 11 12
M  V30 12 1 12 13
M  V30 13 2 13 14
M  V30 14 1 14 15
M  V30 15 2 15 16
M  V30 16 1 16 17
M  V30 17 2 17 18
M  V30 18 1 12 19
M  V30 19 1 19 20
M  V30 20 2 20 21
M  V30 21 1 21 22
M  V30 22 2 22 23
M  V30 23 1 23 24
M  V30 24 2 24 25
M  V30 25 1 19 26
M  V30 26 1 26 27
M  V30 27 1 27 28
M  V30 28 2 28 29
M  V30 29 1 29 30
M  V30 30 2 30 31
M  V30 31 1 31 32
M  V30 32 2 32 33
M  V30 33 1 33 34
M  V30 34 2 34 35
M  V30 35 1 35 36
M  V30 36 2 36 37
M  V30 37 1 37 38
M  V30 38 2 38 39
M  V30 39 1 39 40
M  V30 40 2 40 41
M  V30 41 1 41 42
M  V30 42 2 42 43
M  V30 43 1 43 44
M  V30 44 2 44 45
M  V30 45 1 45 46
M  V30 46 2 46 47
M  V30 47 1 39 48
M  V30 48 2 7 49
M  V30 49 1 49 50
M  V30 50 1 50 51
M  V30 51 1 51 52
M  V30 52 1 51 53
M  V30 53 1 51 54
M  V30 54 2 50 55
M  V30 55 1 55 5
M  V30 56 1 18 13
M  V30 57 1 25 20
M  V30 58 1 48 26
M  V30 59 1 37 28
M  V30 60 1 47 38
M  V30 61 1 36 31
M  V30 62 1 47 42
M  V30 63 1 6 56
M  V30 64 1 8 57
M  V30 65 1 11 58
M  V30 66 1 12 59 CFG=3
M  V30 67 1 14 60
M  V30 68 1 15 61
M  V30 69 1 16 62
M  V30 70 1 17 63
M  V30 71 1 18 64
M  V30 72 1 19 65 CFG=1
M  V30 73 1 21 66
M  V30 74 1 22 67
M  V30 75 1 23 68
M  V30 76 1 24 69
M  V30 77 1 25 70
M  V30 78 1 27 71
M  V30 79 1 27 72
M  V30 80 1 29 73
M  V30 81 1 30 74
M  V30 82 1 32 75
M  V30 83 1 33 76
M  V30 84 1 34 77
M  V30 85 1 35 78
M  V30 86 1 40 79
M  V30 87 1 41 80
M  V30 88 1 43 81
M  V30 89 1 44 82
M  V30 90 1 45 83
M  V30 91 1 46 84
M  V30 92 1 48 85
M  V30 93 1 48 86
M  V30 94 1 49 87
M  V30 95 1 55 88
M  V30 END BOND
M  V30 END CTAB
M  END
>  <catalyst_id>  (1) 
XCUCLBXUKNGJGZ_COCZKOEFSA_R

>  <source_smiles>  (1) 
FC(F)(F)c1cc(NC(=S)N[C@@H](c2ccccc2)[C@H](c2ccccc2)N2Cc3ccc4ccccc4c3-c3c(ccc4ccccc34)C2)cc(C(F)(F)F)c1

>  <axial_configuration>  (1) 
R

>  <inchikey>  (1) 
XCUCLBXUKNGJGZ-COCZKOEFSA-N

>  <build_source>  (1) 
smiles+axial_bridged

>  <final_biaryl_angle_deg>  (1) 
120.50

>  <n_valid_conformers>  (1) 
8

>  <rdkit_version>  (1) 
2025.09.6

>  <random_seed>  (1) 
42

>  <generated_at>  (1) 
2026-05-19T12:30:33

$$$$
