catalyst379
     RDKit          3D

  0  0  0  0  0  0  0  0  0  0999 V3000
M  V30 BEGIN CTAB
M  V30 COUNTS 73 79 0 0 0
M  V30 BEGIN ATOM
M  V30 1 O 3.912469 -2.489700 -0.687511 0
M  V30 2 S 3.601466 -1.249616 -0.013918 0
M  V30 3 O 2.784237 -1.230684 1.184778 0
M  V30 4 N 2.813374 -0.283772 -1.150964 0
M  V30 5 C 2.403119 1.078304 -0.703919 0 CFG=1
M  V30 6 C 3.426198 2.116645 -1.169476 0
M  V30 7 C 2.976219 3.530837 -0.804230 0
M  V30 8 C 1.576520 3.845094 -1.329424 0
M  V30 9 C 0.549779 2.794308 -0.898399 0
M  V30 10 C 1.002291 1.388171 -1.319704 0 CFG=2
M  V30 11 N 0.056193 0.275317 -1.073569 0
M  V30 12 C -1.028293 0.247435 -2.074748 0
M  V30 13 C -1.955415 -0.938550 -1.893556 0
M  V30 14 C -1.864438 -2.030465 -2.762306 0
M  V30 15 C -2.640684 -3.164282 -2.546459 0
M  V30 16 C -3.486762 -3.255887 -1.435339 0
M  V30 17 C -4.215360 -4.436981 -1.213780 0
M  V30 18 C -5.030581 -4.580414 -0.093461 0
M  V30 19 C -5.119101 -3.546456 0.826229 0
M  V30 20 C -4.404958 -2.364528 0.614443 0
M  V30 21 C -3.589100 -2.169665 -0.528367 0
M  V30 22 C -2.855496 -0.968308 -0.796528 0
M  V30 23 C -2.932989 0.240145 0.081687 0
M  V30 24 C -1.733967 0.714188 0.681267 0
M  V30 25 C -1.781759 1.779141 1.587151 0
M  V30 26 C -2.984440 2.425593 1.854026 0
M  V30 27 C -4.162734 2.049903 1.200296 0
M  V30 28 C -5.350097 2.760884 1.444648 0
M  V30 29 C -6.532442 2.435675 0.783824 0
M  V30 30 C -6.539876 1.398846 -0.136965 0
M  V30 31 C -5.367836 0.679711 -0.383471 0
M  V30 32 C -4.152397 0.964043 0.288323 0
M  V30 33 C -0.393517 0.090453 0.325612 0
M  V30 34 O 4.978094 -0.444042 0.304027 0
M  V30 35 C 5.859777 -0.988940 1.197597 0
M  V30 36 C 7.072173 -1.457432 0.688061 0
M  V30 37 C 8.046579 -1.954293 1.554662 0
M  V30 38 C 7.817022 -1.962688 2.930707 0
M  V30 39 C 6.612353 -1.476833 3.441073 0
M  V30 40 C 5.633079 -0.996736 2.575374 0
M  V30 41 O 4.487704 -0.526213 3.151777 0
M  V30 42 H 1.980463 -0.804237 -1.456673 0
M  V30 43 H 2.335744 1.118558 0.388942 0
M  V30 44 H 4.404301 1.921756 -0.716198 0
M  V30 45 H 3.569053 2.046057 -2.255519 0
M  V30 46 H 3.690737 4.258829 -1.204725 0
M  V30 47 H 2.986178 3.642658 0.287128 0
M  V30 48 H 1.603455 3.898596 -2.424826 0
M  V30 49 H 1.263486 4.832185 -0.970631 0
M  V30 50 H -0.419736 3.042479 -1.343508 0
M  V30 51 H 0.437413 2.851464 0.188719 0
M  V30 52 H 1.163464 1.417237 -2.408455 0
M  V30 53 H -1.614085 1.175620 -2.081217 0
M  V30 54 H -0.583239 0.182380 -3.076532 0
M  V30 55 H -1.175047 -2.012749 -3.603123 0
M  V30 56 H -2.548968 -3.998345 -3.239404 0
M  V30 57 H -4.142544 -5.267475 -1.913154 0
M  V30 58 H -5.582218 -5.502831 0.065551 0
M  V30 59 H -5.738306 -3.653362 1.712897 0
M  V30 60 H -4.489277 -1.586790 1.370856 0
M  V30 61 H -0.878438 2.122479 2.085943 0
M  V30 62 H -2.986131 3.253173 2.560704 0
M  V30 63 H -5.360825 3.587503 2.152269 0
M  V30 64 H -7.440841 2.997997 0.981682 0
M  V30 65 H -7.453159 1.144134 -0.668161 0
M  V30 66 H -5.414781 -0.116401 -1.124174 0
M  V30 67 H -0.452971 -0.987353 0.530344 0
M  V30 68 H 0.369011 0.438667 1.031052 0
M  V30 69 H 7.260843 -1.437353 -0.382235 0
M  V30 70 H 8.987622 -2.327310 1.158149 0
M  V30 71 H 8.577809 -2.342988 3.607723 0
M  V30 72 H 6.435891 -1.474897 4.513329 0
M  V30 73 H 3.728691 -0.717890 2.563487 0
M  V30 END ATOM
M  V30 BEGIN BOND
M  V30 1 2 1 2
M  V30 2 2 2 3
M  V30 3 1 2 4
M  V30 4 1 4 5
M  V30 5 1 5 6
M  V30 6 1 6 7
M  V30 7 1 7 8
M  V30 8 1 8 9
M  V30 9 1 9 10
M  V30 10 1 10 11
M  V30 11 1 11 12
M  V30 12 1 12 13
M  V30 13 2 13 14
M  V30 14 1 14 15
M  V30 15 2 15 16
M  V30 16 1 16 17
M  V30 17 2 17 18
M  V30 18 1 18 19
M  V30 19 2 19 20
M  V30 20 1 20 21
M  V30 21 2 21 22
M  V30 22 1 22 23
M  V30 23 2 23 24
M  V30 24 1 24 25
M  V30 25 2 25 26
M  V30 26 1 26 27
M  V30 27 2 27 28
M  V30 28 1 28 29
M  V30 29 2 29 30
M  V30 30 1 30 31
M  V30 31 2 31 32
M  V30 32 1 24 33
M  V30 33 1 2 34
M  V30 34 1 34 35
M  V30 35 2 35 36
M  V30 36 1 36 37
M  V30 37 2 37 38
M  V30 38 1 38 39
M  V30 39 2 39 40
M  V30 40 1 40 41
M  V30 41 1 10 5
M  V30 42 1 33 11
M  V30 43 1 40 35
M  V30 44 1 22 13
M  V30 45 1 32 23
M  V30 46 1 21 16
M  V30 47 1 32 27
M  V30 48 1 4 42
M  V30 49 1 5 43 CFG=1
M  V30 50 1 6 44
M  V30 51 1 6 45
M  V30 52 1 7 46
M  V30 53 1 7 47
M  V30 54 1 8 48
M  V30 55 1 8 49
M  V30 56 1 9 50
M  V30 57 1 9 51
M  V30 58 1 10 52 CFG=3
M  V30 59 1 12 53
M  V30 60 1 12 54
M  V30 61 1 14 55
M  V30 62 1 15 56
M  V30 63 1 17 57
M  V30 64 1 18 58
M  V30 65 1 19 59
M  V30 66 1 20 60
M  V30 67 1 25 61
M  V30 68 1 26 62
M  V30 69 1 28 63
M  V30 70 1 29 64
M  V30 71 1 30 65
M  V30 72 1 31 66
M  V30 73 1 33 67
M  V30 74 1 33 68
M  V30 75 1 36 69
M  V30 76 1 37 70
M  V30 77 1 38 71
M  V30 78 1 39 72
M  V30 79 1 41 73
M  V30 END BOND
M  V30 END CTAB
M  END
>  <catalyst_id>  (1) 
WDZRAVFRKUPITH_KYJUHHDHSA_R

>  <source_smiles>  (1) 
O=S(=O)(N[C@H]1CCCC[C@@H]1N1Cc2ccc3ccccc3c2-c2c(ccc3ccccc23)C1)Oc1ccccc1O

>  <axial_configuration>  (1) 
R

>  <inchikey>  (1) 
WDZRAVFRKUPITH-KYJUHHDHSA-N

>  <build_source>  (1) 
smiles+axial_bridged

>  <final_biaryl_angle_deg>  (1) 
120.52

>  <n_valid_conformers>  (1) 
8

>  <rdkit_version>  (1) 
2025.09.6

>  <random_seed>  (1) 
42

>  <generated_at>  (1) 
2026-05-19T12:31:38

$$$$
