catalyst240
     RDKit          3D

  0  0  0  0  0  0  0  0  0  0999 V3000
M  V30 BEGIN CTAB
M  V30 COUNTS 103 106 0 0 0
M  V30 BEGIN ATOM
M  V30 1 F -7.722316 -5.439839 0.272806 0
M  V30 2 C -6.414036 -5.806387 0.297612 0
M  V30 3 F -6.085187 -6.120822 -0.986245 0
M  V30 4 F -6.355244 -6.969885 0.997276 0
M  V30 5 C -5.529998 -4.722767 0.870059 0
M  V30 6 C -5.074825 -3.679912 0.044868 0
M  V30 7 C -4.302025 -2.625671 0.555481 0
M  V30 8 N -3.907699 -1.620991 -0.357040 0
M  V30 9 C -3.608583 -0.293553 -0.156199 0
M  V30 10 S -3.809529 0.652797 1.199288 0
M  V30 11 N -3.092525 0.334107 -1.262917 0
M  V30 12 C -2.121614 -0.273166 -2.196052 0 CFG=2
M  V30 13 C -0.742922 -0.431151 -1.494533 0
M  V30 14 N -0.308089 0.812636 -0.817107 0
M  V30 15 C -0.019607 0.969269 0.502407 0
M  V30 16 N 0.404519 -0.052991 1.291793 0 CHG=1
M  V30 17 C 1.155706 -1.259617 0.866177 0
M  V30 18 C 2.520258 -1.399101 1.595632 0 CFG=2
M  V30 19 C 2.431691 -1.964966 3.031467 0
M  V30 20 C 1.508661 -1.233986 3.976409 0
M  V30 21 C 1.938563 -0.085204 4.655523 0
M  V30 22 C 1.071980 0.596607 5.510970 0
M  V30 23 C -0.229083 0.137429 5.697967 0
M  V30 24 C -0.661753 -1.012709 5.042210 0
M  V30 25 C 0.203477 -1.700308 4.191545 0
M  V30 26 N 3.247994 -0.115581 1.551942 0
M  V30 27 C 3.779896 0.463969 0.423465 0
M  V30 28 S 3.749167 2.129591 0.365092 0
M  V30 29 N 4.283751 -0.432984 -0.483192 0
M  V30 30 C 4.691892 -0.265277 -1.823704 0
M  V30 31 C 5.591234 -1.209090 -2.336875 0
M  V30 32 C 6.042054 -1.145863 -3.667679 0
M  V30 33 C 7.040279 -2.166180 -4.167585 0
M  V30 34 F 7.199068 -2.154034 -5.517239 0
M  V30 35 F 8.275792 -1.979150 -3.633243 0
M  V30 36 F 6.677217 -3.438793 -3.842882 0
M  V30 37 C 5.569676 -0.118947 -4.494523 0
M  V30 38 C 4.649333 0.820810 -4.009745 0
M  V30 39 C 4.112749 1.919201 -4.894897 0
M  V30 40 F 4.464804 1.793867 -6.199648 0
M  V30 41 F 4.521007 3.154131 -4.502323 0
M  V30 42 F 2.749447 1.952658 -4.877259 0
M  V30 43 C 4.214460 0.732869 -2.671935 0
M  V30 44 N -0.166688 2.212822 1.061383 0
M  V30 45 C -0.533413 3.447471 0.321194 0
M  V30 46 C -0.277855 4.587572 1.298060 0
M  V30 47 C -0.541309 3.952472 2.653130 0
M  V30 48 C 0.008163 2.538816 2.499426 0
M  V30 49 C -2.069172 0.469924 -3.551836 0
M  V30 50 C -1.637765 1.915609 -3.501486 0
M  V30 51 C -2.551883 2.924542 -3.173059 0
M  V30 52 C -2.144960 4.258317 -3.114697 0
M  V30 53 C -0.823648 4.598001 -3.387858 0
M  V30 54 C 0.090011 3.606901 -3.733690 0
M  V30 55 C -0.314436 2.273349 -3.797113 0
M  V30 56 C -3.934842 -2.651740 1.901133 0
M  V30 57 C -4.382960 -3.680185 2.753613 0
M  V30 58 C -3.971477 -3.672720 4.208162 0
M  V30 59 F -4.228379 -2.483229 4.818475 0
M  V30 60 F -2.633127 -3.879734 4.355732 0
M  V30 61 F -4.585666 -4.626599 4.955223 0
M  V30 62 C -5.188252 -4.706698 2.229922 0
M  V30 63 Cl 0.000000 0.000000 0.000000 0 CHG=-1
M  V30 64 H -5.363013 -3.688232 -1.006764 0
M  V30 65 H -4.182979 -1.804915 -1.316162 0
M  V30 66 H -2.955395 1.320084 -1.084387 0
M  V30 67 H -2.467542 -1.288760 -2.426867 0
M  V30 68 H 0.034824 -0.729245 -2.204827 0
M  V30 69 H -0.856090 -1.217875 -0.743492 0
M  V30 70 H -0.438141 1.674270 -1.331506 0
M  V30 71 H 0.365412 0.127758 2.286947 0
M  V30 72 H 1.367362 -1.177544 -0.202467 0
M  V30 73 H 0.524826 -2.137758 1.031631 0
M  V30 74 H 3.108145 -2.129541 1.026758 0
M  V30 75 H 3.436016 -1.981427 3.476019 0
M  V30 76 H 2.121974 -3.016701 2.976999 0
M  V30 77 H 2.960489 0.275960 4.548111 0
M  V30 78 H 1.418337 1.473830 6.054671 0
M  V30 79 H -0.898346 0.655861 6.379950 0
M  V30 80 H -1.665454 -1.391940 5.222700 0
M  V30 81 H -0.148377 -2.615106 3.716028 0
M  V30 82 H 2.951200 0.582819 2.226568 0
M  V30 83 H 4.669672 -1.255074 -0.033847 0
M  V30 84 H 5.978421 -2.005504 -1.700375 0
M  V30 85 H 5.915001 -0.053661 -5.527978 0
M  V30 86 H 3.477147 1.455102 -2.332561 0
M  V30 87 H 0.092551 3.558090 -0.565929 0
M  V30 88 H -1.590918 3.379769 0.053235 0
M  V30 89 H 0.770069 4.904751 1.235854 0
M  V30 90 H -0.911079 5.457982 1.100268 0
M  V30 91 H -0.074094 4.497812 3.476193 0
M  V30 92 H -1.618119 3.909260 2.839892 0
M  V30 93 H 1.075677 2.501681 2.731736 0
M  V30 94 H -0.558589 1.836597 3.118180 0
M  V30 95 H -3.063530 0.428396 -4.018702 0
M  V30 96 H -1.404948 -0.078429 -4.233147 0
M  V30 97 H -3.596845 2.686355 -2.990067 0
M  V30 98 H -2.866778 5.037256 -2.883246 0
M  V30 99 H -0.514253 5.640407 -3.367895 0
M  V30 100 H 1.115108 3.878990 -3.980727 0
M  V30 101 H 0.409639 1.520239 -4.100618 0
M  V30 102 H -3.283538 -1.888093 2.321452 0
M  V30 103 H -5.555825 -5.501296 2.885493 0
M  V30 END ATOM
M  V30 BEGIN BOND
M  V30 1 1 1 2
M  V30 2 1 2 3
M  V30 3 1 2 4
M  V30 4 1 2 5
M  V30 5 2 5 6
M  V30 6 1 6 7
M  V30 7 1 7 8
M  V30 8 1 8 9
M  V30 9 2 9 10
M  V30 10 1 9 11
M  V30 11 1 11 12
M  V30 12 1 12 13
M  V30 13 1 13 14
M  V30 14 1 14 15
M  V30 15 2 15 16
M  V30 16 1 16 17
M  V30 17 1 17 18
M  V30 18 1 18 19
M  V30 19 1 19 20
M  V30 20 2 20 21
M  V30 21 1 21 22
M  V30 22 2 22 23
M  V30 23 1 23 24
M  V30 24 2 24 25
M  V30 25 1 18 26
M  V30 26 1 26 27
M  V30 27 2 27 28
M  V30 28 1 27 29
M  V30 29 1 29 30
M  V30 30 2 30 31
M  V30 31 1 31 32
M  V30 32 1 32 33
M  V30 33 1 33 34
M  V30 34 1 33 35
M  V30 35 1 33 36
M  V30 36 2 32 37
M  V30 37 1 37 38
M  V30 38 1 38 39
M  V30 39 1 39 40
M  V30 40 1 39 41
M  V30 41 1 39 42
M  V30 42 2 38 43
M  V30 43 1 15 44
M  V30 44 1 44 45
M  V30 45 1 45 46
M  V30 46 1 46 47
M  V30 47 1 47 48
M  V30 48 1 12 49
M  V30 49 1 49 50
M  V30 50 2 50 51
M  V30 51 1 51 52
M  V30 52 2 52 53
M  V30 53 1 53 54
M  V30 54 2 54 55
M  V30 55 2 7 56
M  V30 56 1 56 57
M  V30 57 1 57 58
M  V30 58 1 58 59
M  V30 59 1 58 60
M  V30 60 1 58 61
M  V30 61 2 57 62
M  V30 62 1 62 5
M  V30 63 1 25 20
M  V30 64 1 43 30
M  V30 65 1 48 44
M  V30 66 1 55 50
M  V30 67 1 6 64
M  V30 68 1 8 65
M  V30 69 1 11 66
M  V30 70 1 12 67 CFG=3
M  V30 71 1 13 68
M  V30 72 1 13 69
M  V30 73 1 14 70
M  V30 74 1 16 71
M  V30 75 1 17 72
M  V30 76 1 17 73
M  V30 77 1 18 74 CFG=3
M  V30 78 1 19 75
M  V30 79 1 19 76
M  V30 80 1 21 77
M  V30 81 1 22 78
M  V30 82 1 23 79
M  V30 83 1 24 80
M  V30 84 1 25 81
M  V30 85 1 26 82
M  V30 86 1 29 83
M  V30 87 1 31 84
M  V30 88 1 37 85
M  V30 89 1 43 86
M  V30 90 1 45 87
M  V30 91 1 45 88
M  V30 92 1 46 89
M  V30 93 1 46 90
M  V30 94 1 47 91
M  V30 95 1 47 92
M  V30 96 1 48 93
M  V30 97 1 48 94
M  V30 98 1 49 95
M  V30 99 1 49 96
M  V30 100 1 51 97
M  V30 101 1 52 98
M  V30 102 1 53 99
M  V30 103 1 54 100
M  V30 104 1 55 101
M  V30 105 1 56 102
M  V30 106 1 62 103
M  V30 END BOND
M  V30 END CTAB
M  END
>  <catalyst_id>  (1) 
OGFAMMAZGRIEDI_GFLYYBHISA_NONE

>  <source_smiles>  (1) 
FC(F)(F)c1cc(NC(=S)N[C@H](CNC(=[NH+]C[C@H](Cc2ccccc2)NC(=S)Nc2cc(C(F)(F)F)cc(C(F)(F)F)c2)N2CCCC2)Cc2ccccc2)cc(C(F)(F)F)c1.[Cl-]

>  <axial_configuration>  (1) 
none

>  <inchikey>  (1) 
OGFAMMAZGRIEDI-GFLYYBHISA-N

>  <build_source>  (1) 
smiles

>  <rdkit_version>  (1) 
2025.09.6

>  <random_seed>  (1) 
42

>  <generated_at>  (1) 
2026-05-19T12:31:57

$$$$
