catalyst329
     RDKit          3D

  0  0  0  0  0  0  0  0  0  0999 V3000
M  V30 BEGIN CTAB
M  V30 COUNTS 148 156 0 0 0
M  V30 BEGIN ATOM
M  V30 1 C 5.939785 2.357288 -2.256687 0
M  V30 2 N 5.943093 1.699633 -0.951597 0
M  V30 3 C 5.681094 2.642119 0.139067 0
M  V30 4 C 4.222400 3.053476 0.203336 0
M  V30 5 C 3.244698 2.105604 0.543858 0
M  V30 6 C 1.893184 2.450081 0.631191 0
M  V30 7 C 1.510238 3.755048 0.319169 0
M  V30 8 C 2.469398 4.726898 -0.021311 0
M  V30 9 C 2.036245 6.127619 -0.377604 0
M  V30 10 F 2.979253 7.067754 -0.086873 0
M  V30 11 F 0.910178 6.518197 0.283610 0
M  V30 12 F 1.762169 6.267419 -1.703527 0
M  V30 13 C 3.824940 4.365849 -0.073961 0
M  V30 14 N 0.998812 1.420861 0.984453 0
M  V30 15 C -0.313222 1.441674 1.387818 0
M  V30 16 S -1.113711 -0.025785 1.352097 0
M  V30 17 N -0.771493 2.635047 1.880853 0
M  V30 18 C -2.076553 3.124828 2.101390 0
M  V30 19 C -3.221838 2.630490 1.474340 0
M  V30 20 C -4.479728 3.220652 1.692282 0
M  V30 21 C -4.577208 4.319431 2.558172 0
M  V30 22 C -3.441684 4.833142 3.196564 0
M  V30 23 C -3.553179 6.031865 4.103904 0
M  V30 24 F -3.544740 7.205204 3.413509 0
M  V30 25 F -2.533748 6.120897 5.003828 0
M  V30 26 F -4.699348 6.038372 4.839980 0
M  V30 27 C -2.195505 4.237590 2.944735 0
M  V30 28 C -5.714973 2.694460 0.982212 0
M  V30 29 N -6.308010 1.508837 1.614338 0
M  V30 30 C -6.882258 1.814597 2.926097 0
M  V30 31 C -7.283145 0.764539 0.743826 0 CFG=1
M  V30 32 C -8.454807 1.651210 0.278797 0
M  V30 33 C -9.671194 1.612221 0.984258 0
M  V30 34 C -10.752717 2.405357 0.596476 0
M  V30 35 C -10.637350 3.251603 -0.502900 0
M  V30 36 C -9.442454 3.304130 -1.215248 0
M  V30 37 C -8.359755 2.511041 -0.828130 0
M  V30 38 C -6.588521 -0.102965 -0.431236 0 CFG=2
M  V30 39 C -7.662967 -0.708973 -1.357830 0
M  V30 40 C -8.562558 -1.676698 -0.878257 0
M  V30 41 C -9.526827 -2.231873 -1.720332 0
M  V30 42 C -9.601530 -1.832746 -3.052745 0
M  V30 43 C -8.709619 -0.882476 -3.546734 0
M  V30 44 C -7.743292 -0.326108 -2.707171 0
M  V30 45 N -5.683125 -1.231309 -0.044149 0
M  V30 46 C -5.047497 -1.125358 1.263046 0
M  V30 47 C -4.682345 -1.495740 -1.094778 0
M  V30 48 C -4.178743 -2.925532 -1.076776 0
M  V30 49 C -2.804783 -3.198908 -0.976182 0
M  V30 50 C -2.329062 -4.510715 -0.985249 0
M  V30 51 C -3.253912 -5.562653 -1.046939 0
M  V30 52 C -4.632631 -5.317257 -1.160669 0
M  V30 53 C -5.622282 -6.450737 -1.236155 0
M  V30 54 F -6.523738 -6.306448 -2.246690 0
M  V30 55 F -6.352998 -6.584069 -0.095473 0
M  V30 56 F -5.033678 -7.665023 -1.439228 0
M  V30 57 C -5.082501 -3.992070 -1.182263 0
M  V30 58 N -0.963980 -4.865392 -0.864665 0
M  V30 59 C 0.203908 -4.146745 -1.166569 0
M  V30 60 S 0.279965 -2.813175 -2.177337 0
M  V30 61 N 1.292569 -4.793236 -0.561395 0
M  V30 62 C 2.659913 -4.447302 -0.443169 0
M  V30 63 C 3.176014 -3.158765 -0.576933 0
M  V30 64 C 4.553989 -2.903100 -0.448328 0
M  V30 65 C 5.418531 -3.968345 -0.167921 0
M  V30 66 C 4.924183 -5.266376 0.003424 0
M  V30 67 C 5.857964 -6.398182 0.350562 0
M  V30 68 F 6.071905 -6.501059 1.691252 0
M  V30 69 F 5.386020 -7.615078 -0.043602 0
M  V30 70 F 7.087854 -6.277829 -0.220459 0
M  V30 71 C 3.542079 -5.488181 -0.120181 0
M  V30 72 C 5.082661 -1.491618 -0.628622 0
M  V30 73 N 5.612733 -0.822689 0.557274 0
M  V30 74 C 5.226269 -1.322652 1.860720 0
M  V30 75 C 6.971044 -0.234242 0.456634 0 CFG=1
M  V30 76 C 8.079315 -1.294722 0.520386 0
M  V30 77 C 8.572288 -1.952816 -0.617821 0
M  V30 78 C 9.568356 -2.927075 -0.508826 0
M  V30 79 C 10.088155 -3.260978 0.738047 0
M  V30 80 C 9.615607 -2.619914 1.878861 0
M  V30 81 C 8.620951 -1.646009 1.771019 0
M  V30 82 C 7.138537 0.824591 -0.746629 0 CFG=2
M  V30 83 C 8.469291 1.589568 -0.706666 0
M  V30 84 C 8.941031 2.229323 0.450780 0
M  V30 85 C 10.157830 2.915217 0.444760 0
M  V30 86 C 10.922585 2.974567 -0.716907 0
M  V30 87 C 10.471596 2.349410 -1.875534 0
M  V30 88 C 9.255869 1.664143 -1.871043 0
M  V30 89 H 6.105170 1.631295 -3.060536 0
M  V30 90 H 6.700926 3.140620 -2.335186 0
M  V30 91 H 4.966177 2.813218 -2.464066 0
M  V30 92 H 5.901633 2.199472 1.117603 0
M  V30 93 H 6.322132 3.529889 0.061823 0
M  V30 94 H 3.562431 1.085505 0.751820 0
M  V30 95 H 0.460495 4.036984 0.280807 0
M  V30 96 H 4.571729 5.110417 -0.349638 0
M  V30 97 H 1.352616 0.475055 0.865723 0
M  V30 98 H -0.030815 3.183210 2.301195 0
M  V30 99 H -3.163427 1.808013 0.768899 0
M  V30 100 H -5.547934 4.782220 2.734212 0
M  V30 101 H -1.311239 4.651211 3.427924 0
M  V30 102 H -6.443688 3.510847 0.903244 0
M  V30 103 H -5.401917 2.470438 -0.044064 0
M  V30 104 H -6.105030 2.121430 3.633576 0
M  V30 105 H -7.635126 2.608613 2.881586 0
M  V30 106 H -7.342973 0.925836 3.370615 0
M  V30 107 H -7.737040 -0.007940 1.383506 0
M  V30 108 H -9.786249 0.954550 1.843205 0
M  V30 109 H -11.686412 2.358037 1.150486 0
M  V30 110 H -11.480096 3.866250 -0.807457 0
M  V30 111 H -9.353414 3.959765 -2.077222 0
M  V30 112 H -7.442770 2.571196 -1.407864 0
M  V30 113 H -5.999772 0.612176 -1.021995 0
M  V30 114 H -8.504081 -2.011604 0.155021 0
M  V30 115 H -10.216153 -2.978731 -1.336008 0
M  V30 116 H -10.352543 -2.265807 -3.707758 0
M  V30 117 H -8.765846 -0.576115 -4.587769 0
M  V30 118 H -7.052622 0.408007 -3.113944 0
M  V30 119 H -5.791102 -1.092055 2.065123 0
M  V30 120 H -4.389039 -0.257373 1.334970 0
M  V30 121 H -4.443613 -2.013311 1.482439 0
M  V30 122 H -3.851421 -0.782106 -1.019305 0
M  V30 123 H -5.103917 -1.350531 -2.097411 0
M  V30 124 H -2.126649 -2.361598 -0.848305 0
M  V30 125 H -2.907319 -6.594518 -1.029033 0
M  V30 126 H -6.149217 -3.779516 -1.265604 0
M  V30 127 H -0.815967 -5.848452 -0.686716 0
M  V30 128 H 1.078358 -5.711405 -0.199475 0
M  V30 129 H 2.522808 -2.310529 -0.746434 0
M  V30 130 H 6.485868 -3.783294 -0.060004 0
M  V30 131 H 3.165002 -6.501012 0.014483 0
M  V30 132 H 4.272340 -0.861597 -1.016602 0
M  V30 133 H 5.809822 -1.533834 -1.447023 0
M  V30 134 H 4.142751 -1.474275 1.919990 0
M  V30 135 H 5.464611 -0.592102 2.642711 0
M  V30 136 H 5.724246 -2.261506 2.120046 0
M  V30 137 H 7.091488 0.367548 1.366563 0
M  V30 138 H 8.186022 -1.731150 -1.607906 0
M  V30 139 H 9.935669 -3.428959 -1.400469 0
M  V30 140 H 10.860900 -4.020632 0.820214 0
M  V30 141 H 10.020045 -2.877859 2.854030 0
M  V30 142 H 8.265322 -1.161395 2.677850 0
M  V30 143 H 7.176450 0.204820 -1.651459 0
M  V30 144 H 8.371447 2.205546 1.375432 0
M  V30 145 H 10.510079 3.401987 1.350458 0
M  V30 146 H 11.870174 3.505879 -0.718847 0
M  V30 147 H 11.066902 2.392817 -2.783242 0
M  V30 148 H 8.924487 1.183432 -2.789052 0
M  V30 END ATOM
M  V30 BEGIN BOND
M  V30 1 1 1 2
M  V30 2 1 2 3
M  V30 3 1 3 4
M  V30 4 1 4 5
M  V30 5 2 5 6
M  V30 6 1 6 7
M  V30 7 2 7 8
M  V30 8 1 8 9
M  V30 9 1 9 10
M  V30 10 1 9 11
M  V30 11 1 9 12
M  V30 12 1 8 13
M  V30 13 1 6 14
M  V30 14 1 14 15
M  V30 15 2 15 16
M  V30 16 1 15 17
M  V30 17 1 17 18
M  V30 18 1 18 19
M  V30 19 2 19 20
M  V30 20 1 20 21
M  V30 21 2 21 22
M  V30 22 1 22 23
M  V30 23 1 23 24
M  V30 24 1 23 25
M  V30 25 1 23 26
M  V30 26 1 22 27
M  V30 27 1 20 28
M  V30 28 1 28 29
M  V30 29 1 29 30
M  V30 30 1 29 31
M  V30 31 1 31 32
M  V30 32 2 32 33
M  V30 33 1 33 34
M  V30 34 2 34 35
M  V30 35 1 35 36
M  V30 36 2 36 37
M  V30 37 1 31 38
M  V30 38 1 38 39
M  V30 39 2 39 40
M  V30 40 1 40 41
M  V30 41 2 41 42
M  V30 42 1 42 43
M  V30 43 2 43 44
M  V30 44 1 38 45
M  V30 45 1 45 46
M  V30 46 1 45 47
M  V30 47 1 47 48
M  V30 48 1 48 49
M  V30 49 2 49 50
M  V30 50 1 50 51
M  V30 51 2 51 52
M  V30 52 1 52 53
M  V30 53 1 53 54
M  V30 54 1 53 55
M  V30 55 1 53 56
M  V30 56 1 52 57
M  V30 57 1 50 58
M  V30 58 1 58 59
M  V30 59 2 59 60
M  V30 60 1 59 61
M  V30 61 1 61 62
M  V30 62 1 62 63
M  V30 63 2 63 64
M  V30 64 1 64 65
M  V30 65 2 65 66
M  V30 66 1 66 67
M  V30 67 1 67 68
M  V30 68 1 67 69
M  V30 69 1 67 70
M  V30 70 1 66 71
M  V30 71 1 64 72
M  V30 72 1 72 73
M  V30 73 1 73 74
M  V30 74 1 73 75
M  V30 75 1 75 76
M  V30 76 2 76 77
M  V30 77 1 77 78
M  V30 78 2 78 79
M  V30 79 1 79 80
M  V30 80 2 80 81
M  V30 81 1 75 82
M  V30 82 1 82 83
M  V30 83 2 83 84
M  V30 84 1 84 85
M  V30 85 2 85 86
M  V30 86 1 86 87
M  V30 87 2 87 88
M  V30 88 1 82 2
M  V30 89 1 88 83
M  V30 90 2 13 4
M  V30 91 2 27 18
M  V30 92 1 37 32
M  V30 93 1 44 39
M  V30 94 2 57 48
M  V30 95 2 71 62
M  V30 96 1 81 76
M  V30 97 1 1 89
M  V30 98 1 1 90
M  V30 99 1 1 91
M  V30 100 1 3 92
M  V30 101 1 3 93
M  V30 102 1 5 94
M  V30 103 1 7 95
M  V30 104 1 13 96
M  V30 105 1 14 97
M  V30 106 1 17 98
M  V30 107 1 19 99
M  V30 108 1 21 100
M  V30 109 1 27 101
M  V30 110 1 28 102
M  V30 111 1 28 103
M  V30 112 1 30 104
M  V30 113 1 30 105
M  V30 114 1 30 106
M  V30 115 1 31 107 CFG=1
M  V30 116 1 33 108
M  V30 117 1 34 109
M  V30 118 1 35 110
M  V30 119 1 36 111
M  V30 120 1 37 112
M  V30 121 1 38 113 CFG=3
M  V30 122 1 40 114
M  V30 123 1 41 115
M  V30 124 1 42 116
M  V30 125 1 43 117
M  V30 126 1 44 118
M  V30 127 1 46 119
M  V30 128 1 46 120
M  V30 129 1 46 121
M  V30 130 1 47 122
M  V30 131 1 47 123
M  V30 132 1 49 124
M  V30 133 1 51 125
M  V30 134 1 57 126
M  V30 135 1 58 127
M  V30 136 1 61 128
M  V30 137 1 63 129
M  V30 138 1 65 130
M  V30 139 1 71 131
M  V30 140 1 72 132
M  V30 141 1 72 133
M  V30 142 1 74 134
M  V30 143 1 74 135
M  V30 144 1 74 136
M  V30 145 1 75 137 CFG=1
M  V30 146 1 77 138
M  V30 147 1 78 139
M  V30 148 1 79 140
M  V30 149 1 80 141
M  V30 150 1 81 142
M  V30 151 1 82 143 CFG=3
M  V30 152 1 84 144
M  V30 153 1 85 145
M  V30 154 1 86 146
M  V30 155 1 87 147
M  V30 156 1 88 148
M  V30 END BOND
M  V30 END CTAB
M  END
>  <catalyst_id>  (1) 
SKDUHCRXLNCAGF_YKDOIGRJSA_NONE

>  <source_smiles>  (1) 
CN1Cc2cc(cc(C(F)(F)F)c2)NC(=S)Nc2cc(cc(C(F)(F)F)c2)CN(C)[C@@H](c2ccccc2)[C@H](c2ccccc2)N(C)Cc2cc(cc(C(F)(F)F)c2)NC(=S)Nc2cc(cc(C(F)(F)F)c2)CN(C)[C@@H](c2ccccc2)[C@@H]1c1ccccc1

>  <axial_configuration>  (1) 
none

>  <inchikey>  (1) 
SKDUHCRXLNCAGF-YKDOIGRJSA-N

>  <build_source>  (1) 
smiles

>  <rdkit_version>  (1) 
2025.09.6

>  <random_seed>  (1) 
42

>  <generated_at>  (1) 
2026-05-19T12:37:47

$$$$
