catalyst347
     RDKit          3D

  0  0  0  0  0  0  0  0  0  0999 V3000
M  V30 BEGIN CTAB
M  V30 COUNTS 61 63 0 0 0
M  V30 BEGIN ATOM
M  V30 1 C -2.934415 -4.725303 -0.855534 0
M  V30 2 C -1.770303 -3.867924 -1.336731 0
M  V30 3 N -1.553520 -2.730875 -0.421398 0
M  V30 4 C -0.381782 -2.923569 0.447461 0
M  V30 5 C -0.447603 -4.162311 1.337357 0
M  V30 6 C -1.490409 -1.466391 -1.194437 0
M  V30 7 C -1.405110 -0.129974 -0.387292 0 CFG=2
M  V30 8 C -2.000762 1.002942 -1.264042 0
M  V30 9 C -2.085996 2.340469 -0.596226 0
M  V30 10 C -1.224284 3.405878 -0.776290 0
M  V30 11 N -1.654852 4.442877 0.006682 0
M  V30 12 C -2.794933 4.086504 0.686779 0
M  V30 13 C -3.576460 4.822983 1.585143 0
M  V30 14 C -4.694806 4.192987 2.138371 0
M  V30 15 C -5.015617 2.879563 1.805175 0
M  V30 16 C -4.223606 2.158363 0.904252 0
M  V30 17 C -3.089926 2.770523 0.330998 0
M  V30 18 N 0.006691 0.180139 -0.046500 0
M  V30 19 C 0.493270 0.660104 1.136020 0
M  V30 20 S -0.366008 0.889828 2.550418 0
M  V30 21 N 1.816700 1.010862 1.159018 0
M  V30 22 C 2.904828 0.654623 0.339718 0
M  V30 23 C 2.898040 -0.430705 -0.538016 0
M  V30 24 C 4.023792 -0.739038 -1.321424 0
M  V30 25 C 3.989212 -1.926811 -2.253901 0
M  V30 26 F 4.249678 -3.096886 -1.611790 0
M  V30 27 F 2.777090 -2.087126 -2.854758 0
M  V30 28 F 4.896629 -1.839267 -3.264971 0
M  V30 29 C 5.181239 0.042040 -1.187984 0
M  V30 30 C 5.223276 1.112413 -0.282123 0
M  V30 31 C 6.464670 1.962145 -0.147764 0
M  V30 32 F 6.625692 2.475148 1.102974 0
M  V30 33 F 7.609729 1.279018 -0.422143 0
M  V30 34 F 6.449892 3.028231 -0.992987 0
M  V30 35 C 4.077074 1.406645 0.475415 0
M  V30 36 H -2.746346 -5.166361 0.126913 0
M  V30 37 H -3.109969 -5.545376 -1.559576 0
M  V30 38 H -3.855587 -4.135736 -0.793789 0
M  V30 39 H -2.025620 -3.525184 -2.348217 0
M  V30 40 H -0.866911 -4.477575 -1.459880 0
M  V30 41 H -0.299356 -2.081495 1.136938 0
M  V30 42 H 0.539040 -2.956979 -0.146965 0
M  V30 43 H 0.400719 -4.165542 2.030289 0
M  V30 44 H -0.397219 -5.088965 0.758432 0
M  V30 45 H -1.364470 -4.169204 1.935819 0
M  V30 46 H -0.659621 -1.509895 -1.912629 0
M  V30 47 H -2.416891 -1.424686 -1.782585 0
M  V30 48 H -2.002175 -0.227534 0.525004 0
M  V30 49 H -3.012759 0.723498 -1.585636 0
M  V30 50 H -1.406098 1.102557 -2.182505 0
M  V30 51 H -0.340218 3.512466 -1.389826 0
M  V30 52 H -1.208084 5.345941 0.077742 0
M  V30 53 H -3.326390 5.844491 1.850905 0
M  V30 54 H -5.320056 4.735512 2.843514 0
M  V30 55 H -5.885541 2.405146 2.252104 0
M  V30 56 H -4.479725 1.132062 0.659842 0
M  V30 57 H 0.560120 0.458571 -0.843778 0
M  V30 58 H 2.039158 1.574944 1.974033 0
M  V30 59 H 2.037268 -1.091725 -0.599866 0
M  V30 60 H 6.063774 -0.193370 -1.785939 0
M  V30 61 H 4.105846 2.246336 1.169993 0
M  V30 END ATOM
M  V30 BEGIN BOND
M  V30 1 1 1 2
M  V30 2 1 2 3
M  V30 3 1 3 4
M  V30 4 1 4 5
M  V30 5 1 3 6
M  V30 6 1 6 7
M  V30 7 1 7 8
M  V30 8 1 8 9
M  V30 9 2 9 10
M  V30 10 1 10 11
M  V30 11 1 11 12
M  V30 12 2 12 13
M  V30 13 1 13 14
M  V30 14 2 14 15
M  V30 15 1 15 16
M  V30 16 2 16 17
M  V30 17 1 7 18
M  V30 18 1 18 19
M  V30 19 2 19 20
M  V30 20 1 19 21
M  V30 21 1 21 22
M  V30 22 2 22 23
M  V30 23 1 23 24
M  V30 24 1 24 25
M  V30 25 1 25 26
M  V30 26 1 25 27
M  V30 27 1 25 28
M  V30 28 2 24 29
M  V30 29 1 29 30
M  V30 30 1 30 31
M  V30 31 1 31 32
M  V30 32 1 31 33
M  V30 33 1 31 34
M  V30 34 2 30 35
M  V30 35 1 17 9
M  V30 36 1 35 22
M  V30 37 1 17 12
M  V30 38 1 1 36
M  V30 39 1 1 37
M  V30 40 1 1 38
M  V30 41 1 2 39
M  V30 42 1 2 40
M  V30 43 1 4 41
M  V30 44 1 4 42
M  V30 45 1 5 43
M  V30 46 1 5 44
M  V30 47 1 5 45
M  V30 48 1 6 46
M  V30 49 1 6 47
M  V30 50 1 7 48 CFG=1
M  V30 51 1 8 49
M  V30 52 1 8 50
M  V30 53 1 10 51
M  V30 54 1 11 52
M  V30 55 1 13 53
M  V30 56 1 14 54
M  V30 57 1 15 55
M  V30 58 1 16 56
M  V30 59 1 18 57
M  V30 60 1 21 58
M  V30 61 1 23 59
M  V30 62 1 29 60
M  V30 63 1 35 61
M  V30 END BOND
M  V30 END CTAB
M  END
>  <catalyst_id>  (1) 
TWTKHOPPOXCEOU_IBGZPJMESA_NONE

>  <source_smiles>  (1) 
CCN(CC)C[C@H](Cc1c[nH]c2ccccc12)NC(=S)Nc1cc(C(F)(F)F)cc(C(F)(F)F)c1

>  <axial_configuration>  (1) 
none

>  <inchikey>  (1) 
TWTKHOPPOXCEOU-IBGZPJMESA-N

>  <build_source>  (1) 
smiles

>  <rdkit_version>  (1) 
2025.09.6

>  <random_seed>  (1) 
42

>  <generated_at>  (1) 
2026-05-19T12:32:31

$$$$
