catalyst187
     RDKit          3D

  0  0  0  0  0  0  0  0  0  0999 V3000
M  V30 BEGIN CTAB
M  V30 COUNTS 20 20 0 0 0
M  V30 BEGIN ATOM
M  V30 1 C 0.887731 0.964722 1.484329 0
M  V30 2 C 0.330020 0.339830 0.207470 0 CFG=1
M  V30 3 C 1.283693 0.636862 -0.965658 0
M  V30 4 O 1.040383 1.341570 -1.935116 0
M  V30 5 O 2.491053 0.048092 -0.845578 0
M  V30 6 C 0.072301 -1.168276 0.348615 0
M  V30 7 C -1.423030 -1.340532 0.120205 0
M  V30 8 C -1.807245 -0.119687 -0.684651 0
M  V30 9 N -1.008945 0.934986 -0.064588 0
M  V30 10 H 1.849474 0.515417 1.757060 0
M  V30 11 H 1.055926 2.041102 1.360731 0
M  V30 12 H 0.205933 0.824584 2.331148 0
M  V30 13 H 2.976343 0.340758 -1.645543 0
M  V30 14 H 0.616513 -1.746860 -0.407318 0
M  V30 15 H 0.351638 -1.562167 1.331974 0
M  V30 16 H -1.948485 -1.345053 1.083303 0
M  V30 17 H -1.657139 -2.275160 -0.398008 0
M  V30 18 H -1.536671 -0.243240 -1.739712 0
M  V30 19 H -2.877240 0.096195 -0.620988 0
M  V30 20 H -0.902252 1.716858 -0.717678 0
M  V30 END ATOM
M  V30 BEGIN BOND
M  V30 1 1 2 1 CFG=1
M  V30 2 1 2 3
M  V30 3 2 3 4
M  V30 4 1 3 5
M  V30 5 1 2 6
M  V30 6 1 6 7
M  V30 7 1 7 8
M  V30 8 1 8 9
M  V30 9 1 9 2
M  V30 10 1 1 10
M  V30 11 1 1 11
M  V30 12 1 1 12
M  V30 13 1 5 13
M  V30 14 1 6 14
M  V30 15 1 6 15
M  V30 16 1 7 16
M  V30 17 1 7 17
M  V30 18 1 8 18
M  V30 19 1 8 19
M  V30 20 1 9 20
M  V30 END BOND
M  V30 END CTAB
M  END
>  <catalyst_id>  (1) 
LWHHAVWYGIBIEU_LURJTMIESA_NONE

>  <source_smiles>  (1) 
C[C@@]1(C(=O)O)CCCN1

>  <axial_configuration>  (1) 
none

>  <inchikey>  (1) 
LWHHAVWYGIBIEU-LURJTMIESA-N

>  <build_source>  (1) 
smiles

>  <rdkit_version>  (1) 
2025.09.6

>  <random_seed>  (1) 
42

>  <generated_at>  (1) 
2026-05-19T12:30:08

$$$$
