catalyst119
     RDKit          3D

  0  0  0  0  0  0  0  0  0  0999 V3000
M  V30 BEGIN CTAB
M  V30 COUNTS 69 73 0 0 0
M  V30 BEGIN ATOM
M  V30 1 C -3.927032 -3.056402 -1.094889 0
M  V30 2 C -2.659265 -3.388596 -0.818202 0
M  V30 3 C -1.825947 -2.963573 0.372384 0 CFG=1
M  V30 4 C -0.463415 -2.377421 -0.088418 0
M  V30 5 N 0.014730 -1.266078 0.787678 0
M  V30 6 C -0.085650 -1.724440 2.198780 0
M  V30 7 C -1.551150 -1.930366 2.617306 0
M  V30 8 C -2.443759 -1.943495 1.360640 0 CFG=1
M  V30 9 C -2.374143 -0.539103 0.725286 0
M  V30 10 C -0.896542 -0.070853 0.634339 0 CFG=2
M  V30 11 C -0.569937 0.821446 -0.630102 0 CFG=2
M  V30 12 N 0.668012 1.610057 -0.495581 0
M  V30 13 C 1.973419 1.222196 -0.594447 0
M  V30 14 S 3.093266 2.458124 -0.704007 0
M  V30 15 N 2.196597 -0.125954 -0.559869 0
M  V30 16 C 3.342732 -0.882801 -0.881029 0
M  V30 17 C 3.462270 -2.143529 -0.284784 0
M  V30 18 C 4.558607 -2.978809 -0.553174 0
M  V30 19 C 4.656681 -4.332833 0.105030 0
M  V30 20 F 4.186810 -4.338461 1.383519 0
M  V30 21 F 5.931204 -4.806608 0.173836 0
M  V30 22 F 3.939158 -5.279672 -0.559983 0
M  V30 23 C 5.531174 -2.545510 -1.464960 0
M  V30 24 C 5.412806 -1.300498 -2.101976 0
M  V30 25 C 6.461445 -0.831776 -3.082755 0
M  V30 26 F 5.949825 -0.080455 -4.096386 0
M  V30 27 F 7.119571 -1.862742 -3.684801 0
M  V30 28 F 7.422124 -0.070791 -2.492594 0
M  V30 29 C 4.312781 -0.478528 -1.798900 0
M  V30 30 C -1.707628 1.759136 -1.042108 0
M  V30 31 C -2.304548 1.524645 -2.291012 0
M  V30 32 C -3.357731 2.319955 -2.690759 0
M  V30 33 N -3.856837 3.322834 -1.947038 0
M  V30 34 C -3.288127 3.576755 -0.759834 0
M  V30 35 C -3.808509 4.624761 -0.014941 0
M  V30 36 C -3.288670 4.985175 1.231379 0
M  V30 37 C -2.212002 4.284601 1.751178 0
M  V30 38 O -1.594827 4.522099 2.946649 0
M  V30 39 C -2.063669 5.631401 3.704035 0
M  V30 40 C -1.675874 3.223855 1.015255 0
M  V30 41 C -2.198316 2.835628 -0.245121 0
M  V30 42 H -4.517895 -2.404945 -0.460099 0
M  V30 43 H -4.417431 -3.448019 -1.982090 0
M  V30 44 H -2.161267 -4.069910 -1.509420 0
M  V30 45 H -1.625111 -3.887981 0.933574 0
M  V30 46 H -0.501346 -2.034884 -1.129434 0
M  V30 47 H 0.288157 -3.177728 -0.079693 0
M  V30 48 H 0.481501 -2.655620 2.323962 0
M  V30 49 H 0.395070 -0.995842 2.862981 0
M  V30 50 H -1.869416 -1.125878 3.291507 0
M  V30 51 H -1.650486 -2.873379 3.167343 0
M  V30 52 H -3.471764 -2.203187 1.633289 0
M  V30 53 H -2.850335 -0.558415 -0.259160 0
M  V30 54 H -2.940119 0.167714 1.344475 0
M  V30 55 H -0.703333 0.566648 1.506705 0
M  V30 56 H -0.379236 0.142578 -1.470413 0
M  V30 57 H 0.566882 2.617418 -0.563884 0
M  V30 58 H 1.494065 -0.621243 -0.005756 0
M  V30 59 H 2.706410 -2.480432 0.423630 0
M  V30 60 H 6.385924 -3.186173 -1.688836 0
M  V30 61 H 4.217593 0.465365 -2.329744 0
M  V30 62 H -1.963277 0.728597 -2.946058 0
M  V30 63 H -3.846571 2.165259 -3.648523 0
M  V30 64 H -4.648960 5.185065 -0.420161 0
M  V30 65 H -3.748012 5.815630 1.756313 0
M  V30 66 H -3.103709 5.484954 4.013569 0
M  V30 67 H -1.943829 6.567958 3.149346 0
M  V30 68 H -1.453094 5.699806 4.609514 0
M  V30 69 H -0.820049 2.713272 1.447438 0
M  V30 END ATOM
M  V30 BEGIN BOND
M  V30 1 2 1 2
M  V30 2 1 2 3
M  V30 3 1 3 4
M  V30 4 1 4 5
M  V30 5 1 5 6
M  V30 6 1 6 7
M  V30 7 1 7 8
M  V30 8 1 8 9
M  V30 9 1 9 10
M  V30 10 1 10 11
M  V30 11 1 11 12
M  V30 12 1 12 13
M  V30 13 2 13 14
M  V30 14 1 13 15
M  V30 15 1 15 16
M  V30 16 2 16 17
M  V30 17 1 17 18
M  V30 18 1 18 19
M  V30 19 1 19 20
M  V30 20 1 19 21
M  V30 21 1 19 22
M  V30 22 2 18 23
M  V30 23 1 23 24
M  V30 24 1 24 25
M  V30 25 1 25 26
M  V30 26 1 25 27
M  V30 27 1 25 28
M  V30 28 2 24 29
M  V30 29 1 11 30
M  V30 30 2 30 31
M  V30 31 1 31 32
M  V30 32 2 32 33
M  V30 33 1 33 34
M  V30 34 2 34 35
M  V30 35 1 35 36
M  V30 36 2 36 37
M  V30 37 1 37 38
M  V30 38 1 38 39
M  V30 39 1 37 40
M  V30 40 2 40 41
M  V30 41 1 8 3
M  V30 42 1 29 16
M  V30 43 1 41 30
M  V30 44 1 10 5
M  V30 45 1 41 34
M  V30 46 1 1 42
M  V30 47 1 1 43
M  V30 48 1 2 44
M  V30 49 1 3 45 CFG=1
M  V30 50 1 4 46
M  V30 51 1 4 47
M  V30 52 1 6 48
M  V30 53 1 6 49
M  V30 54 1 7 50
M  V30 55 1 7 51
M  V30 56 1 8 52 CFG=1
M  V30 57 1 9 53
M  V30 58 1 9 54
M  V30 59 1 10 55 CFG=1
M  V30 60 1 11 56 CFG=3
M  V30 61 1 12 57
M  V30 62 1 15 58
M  V30 63 1 17 59
M  V30 64 1 23 60
M  V30 65 1 29 61
M  V30 66 1 31 62
M  V30 67 1 32 63
M  V30 68 1 35 64
M  V30 69 1 36 65
M  V30 70 1 39 66
M  V30 71 1 39 67
M  V30 72 1 39 68
M  V30 73 1 40 69
M  V30 END BOND
M  V30 END CTAB
M  END
>  <catalyst_id>  (1) 
IQMKPBFOEWWDIQ_ZRJNXXGPSA_NONE

>  <source_smiles>  (1) 
C=C[C@H]1CN2CC[C@H]1C[C@@H]2[C@H](NC(=S)Nc1cc(C(F)(F)F)cc(C(F)(F)F)c1)c1ccnc2ccc(OC)cc12

>  <axial_configuration>  (1) 
none

>  <inchikey>  (1) 
IQMKPBFOEWWDIQ-ZRJNXXGPSA-N

>  <build_source>  (1) 
smiles

>  <rdkit_version>  (1) 
2025.09.6

>  <random_seed>  (1) 
42

>  <generated_at>  (1) 
2026-05-19T12:30:06

$$$$
