catalyst300
     RDKit          3D

  0  0  0  0  0  0  0  0  0  0999 V3000
M  V30 BEGIN CTAB
M  V30 COUNTS 49 52 0 0 0
M  V30 BEGIN ATOM
M  V30 1 C -4.871533 2.424303 -1.162730 0
M  V30 2 C -3.873771 1.532497 -1.107117 0
M  V30 3 C -3.650367 0.585842 0.049108 0 CFG=1
M  V30 4 C -3.618534 -0.899127 -0.404696 0
M  V30 5 N -2.347463 -1.572669 -0.024283 0
M  V30 6 C -2.223263 -1.531490 1.450185 0
M  V30 7 C -2.269965 -0.097077 1.997282 0
M  V30 8 C -2.342014 0.892083 0.820438 0 CFG=1
M  V30 9 C -1.106496 0.607283 -0.054221 0
M  V30 10 C -1.222684 -0.806022 -0.671450 0 CFG=1
M  V30 11 C 0.135117 -1.601142 -0.663262 0 CFG=1
M  V30 12 N -0.101341 -2.982753 -1.134599 0
M  V30 13 C 1.217897 -0.936635 -1.503765 0
M  V30 14 C 1.089573 -0.976913 -2.901375 0
M  V30 15 C 2.045472 -0.365781 -3.684043 0
M  V30 16 N 3.110921 0.286778 -3.185061 0
M  V30 17 C 3.254423 0.333304 -1.852722 0
M  V30 18 C 4.361372 1.006037 -1.356557 0
M  V30 19 C 4.613713 1.121829 0.013382 0
M  V30 20 C 3.736740 0.549012 0.920888 0
M  V30 21 O 3.848886 0.580115 2.282733 0
M  V30 22 C 4.982017 1.253051 2.818658 0
M  V30 23 C 2.615535 -0.134100 0.440011 0
M  V30 24 C 2.342238 -0.260118 -0.947108 0
M  V30 25 H -5.594357 2.527703 -0.359417 0
M  V30 26 H -4.983986 3.077636 -2.022965 0
M  V30 27 H -3.182092 1.475356 -1.945741 0
M  V30 28 H -4.486396 0.696415 0.754719 0
M  V30 29 H -3.773488 -0.998551 -1.486937 0
M  V30 30 H -4.458036 -1.439146 0.053165 0
M  V30 31 H -3.030239 -2.123532 1.900342 0
M  V30 32 H -1.298382 -2.025491 1.768895 0
M  V30 33 H -3.140658 0.029326 2.651750 0
M  V30 34 H -1.378434 0.099832 2.604686 0
M  V30 35 H -2.326664 1.923921 1.188772 0
M  V30 36 H -1.018168 1.354886 -0.850850 0
M  V30 37 H -0.208911 0.700846 0.566615 0
M  V30 38 H -1.498823 -0.682470 -1.729347 0
M  V30 39 H 0.462785 -1.702800 0.373518 0
M  V30 40 H 0.623078 -3.588452 -0.756906 0
M  V30 41 H -0.990019 -3.278977 -0.718882 0
M  V30 42 H 0.257392 -1.493093 -3.371934 0
M  V30 43 H 1.977696 -0.386041 -4.767704 0
M  V30 44 H 5.054895 1.457883 -2.063073 0
M  V30 45 H 5.499780 1.663597 0.325209 0
M  V30 46 H 4.927359 1.182708 3.909284 0
M  V30 47 H 5.913349 0.773272 2.500011 0
M  V30 48 H 4.972284 2.315147 2.552369 0
M  V30 49 H 1.953562 -0.568282 1.183035 0
M  V30 END ATOM
M  V30 BEGIN BOND
M  V30 1 2 1 2
M  V30 2 1 2 3
M  V30 3 1 3 4
M  V30 4 1 4 5
M  V30 5 1 5 6
M  V30 6 1 6 7
M  V30 7 1 7 8
M  V30 8 1 8 9
M  V30 9 1 9 10
M  V30 10 1 10 11
M  V30 11 1 11 12
M  V30 12 1 11 13
M  V30 13 2 13 14
M  V30 14 1 14 15
M  V30 15 2 15 16
M  V30 16 1 16 17
M  V30 17 2 17 18
M  V30 18 1 18 19
M  V30 19 2 19 20
M  V30 20 1 20 21
M  V30 21 1 21 22
M  V30 22 1 20 23
M  V30 23 2 23 24
M  V30 24 1 8 3
M  V30 25 1 24 13
M  V30 26 1 10 5
M  V30 27 1 24 17
M  V30 28 1 1 25
M  V30 29 1 1 26
M  V30 30 1 2 27
M  V30 31 1 3 28 CFG=1
M  V30 32 1 4 29
M  V30 33 1 4 30
M  V30 34 1 6 31
M  V30 35 1 6 32
M  V30 36 1 7 33
M  V30 37 1 7 34
M  V30 38 1 8 35 CFG=1
M  V30 39 1 9 36
M  V30 40 1 9 37
M  V30 41 1 10 38 CFG=3
M  V30 42 1 11 39 CFG=1
M  V30 43 1 12 40
M  V30 44 1 12 41
M  V30 45 1 14 42
M  V30 46 1 15 43
M  V30 47 1 18 44
M  V30 48 1 19 45
M  V30 49 1 22 46
M  V30 50 1 22 47
M  V30 51 1 22 48
M  V30 52 1 23 49
M  V30 END BOND
M  V30 END CTAB
M  END
>  <catalyst_id>  (1) 
RIEKOKLABHBCGI_FEBSWUBLSA_NONE

>  <source_smiles>  (1) 
C=C[C@H]1CN2CC[C@H]1C[C@H]2[C@@H](N)c1ccnc2ccc(OC)cc12

>  <axial_configuration>  (1) 
none

>  <inchikey>  (1) 
RIEKOKLABHBCGI-FEBSWUBLSA-N

>  <build_source>  (1) 
smiles

>  <rdkit_version>  (1) 
2025.09.6

>  <random_seed>  (1) 
42

>  <generated_at>  (1) 
2026-05-19T12:34:17

$$$$
