catalyst298
     RDKit          3D

  0  0  0  0  0  0  0  0  0  0999 V3000
M  V30 BEGIN CTAB
M  V30 COUNTS 83 88 0 0 0
M  V30 BEGIN ATOM
M  V30 1 C 0.481283 3.098443 -4.944669 0
M  V30 2 C 0.288162 2.407471 -3.813639 0
M  V30 3 C -0.690668 2.811444 -2.736124 0 CFG=1
M  V30 4 C -1.722807 1.693314 -2.425810 0
M  V30 5 N -1.652285 1.240628 -1.005792 0
M  V30 6 C -1.975336 2.404515 -0.135410 0
M  V30 7 C -1.087948 3.621495 -0.426616 0
M  V30 8 C 0.013131 3.206607 -1.414442 0 CFG=1
M  V30 9 C 0.717038 1.994710 -0.775376 0
M  V30 10 C -0.241297 0.773202 -0.754529 0 CFG=1
M  V30 11 C -0.086086 -0.150344 0.521548 0 CFG=1
M  V30 12 N -0.678082 -1.493692 0.336490 0
M  V30 13 C -1.982989 -1.893253 0.375298 0
M  V30 14 S -2.231319 -3.542073 0.494610 0
M  V30 15 N -2.913909 -0.899181 0.277313 0
M  V30 16 C -4.301593 -0.902955 0.529637 0
M  V30 17 C -5.071732 0.065690 -0.124270 0
M  V30 18 C -6.457219 0.161198 0.082790 0
M  V30 19 C -7.266178 1.189492 -0.668654 0
M  V30 20 F -6.580715 2.347028 -0.886427 0
M  V30 21 F -7.655111 0.747727 -1.895228 0
M  V30 22 F -8.407124 1.551250 -0.019185 0
M  V30 23 C -7.071902 -0.736323 0.966942 0
M  V30 24 C -6.313644 -1.692416 1.660325 0
M  V30 25 C -6.973782 -2.655073 2.618867 0
M  V30 26 F -8.128755 -2.163171 3.150159 0
M  V30 27 F -6.187204 -2.976903 3.682453 0
M  V30 28 F -7.309226 -3.831734 2.024253 0
M  V30 29 C -4.927764 -1.762981 1.432526 0
M  V30 30 C 1.380865 -0.344178 0.916486 0
M  V30 31 C 2.234272 -0.999985 0.007323 0
M  V30 32 C 3.575149 -1.185413 0.314767 0
M  V30 33 C 4.522466 -1.861684 -0.594273 0
M  V30 34 C 5.866493 -1.457366 -0.659228 0
M  V30 35 C 6.774452 -2.081663 -1.521576 0
M  V30 36 C 6.369163 -3.134922 -2.339654 0
M  V30 37 O 7.351940 -3.656375 -3.133661 0
M  V30 38 C 6.994432 -4.755889 -3.961336 0
M  V30 39 C 5.044302 -3.560541 -2.284588 0
M  V30 40 C 4.134752 -2.931643 -1.420881 0
M  V30 41 N 4.094724 -0.733270 1.477295 0
M  V30 42 C 3.300424 -0.115945 2.363267 0
M  V30 43 C 3.882987 0.316991 3.545086 0
M  V30 44 C 3.154471 0.976130 4.539193 0
M  V30 45 C 1.801662 1.211461 4.352320 0
M  V30 46 O 0.963119 1.843006 5.227077 0
M  V30 47 C 1.520810 2.253285 6.470128 0
M  V30 48 C 1.197068 0.781702 3.167098 0
M  V30 49 C 1.923769 0.112103 2.148326 0
M  V30 50 H -0.061741 4.013894 -5.159000 0
M  V30 51 H 1.198137 2.759359 -5.686998 0
M  V30 52 H 0.864414 1.497042 -3.660986 0
M  V30 53 H -1.253088 3.687462 -3.090068 0
M  V30 54 H -2.736858 2.063508 -2.627528 0
M  V30 55 H -1.598247 0.827415 -3.088856 0
M  V30 56 H -3.028328 2.679381 -0.273623 0
M  V30 57 H -1.889456 2.121144 0.919794 0
M  V30 58 H -0.645749 3.992253 0.505784 0
M  V30 59 H -1.687404 4.438186 -0.846261 0
M  V30 60 H 0.718571 4.030900 -1.567388 0
M  V30 61 H 1.034468 2.272429 0.236631 0
M  V30 62 H 1.624156 1.745234 -1.338038 0
M  V30 63 H 0.030563 0.131095 -1.605711 0
M  V30 64 H -0.650268 0.300098 1.338659 0
M  V30 65 H -0.053042 -2.278672 0.483413 0
M  V30 66 H -2.576200 -0.105320 -0.271695 0
M  V30 67 H -4.597422 0.749172 -0.827508 0
M  V30 68 H -8.150210 -0.683982 1.127212 0
M  V30 69 H -4.350564 -2.483409 2.006708 0
M  V30 70 H 1.846389 -1.348215 -0.946219 0
M  V30 71 H 6.218240 -0.640869 -0.030174 0
M  V30 72 H 7.807185 -1.742843 -1.548967 0
M  V30 73 H 6.229087 -4.468626 -4.689875 0
M  V30 74 H 6.668775 -5.612430 -3.361813 0
M  V30 75 H 7.886380 -5.059231 -4.517976 0
M  V30 76 H 4.682388 -4.382568 -2.893170 0
M  V30 77 H 3.115581 -3.311372 -1.391202 0
M  V30 78 H 4.944789 0.134523 3.700303 0
M  V30 79 H 3.678778 1.286219 5.436534 0
M  V30 80 H 2.303401 3.004564 6.321492 0
M  V30 81 H 1.897879 1.395333 7.036608 0
M  V30 82 H 0.722272 2.715929 7.058072 0
M  V30 83 H 0.134865 0.982475 3.064422 0
M  V30 END ATOM
M  V30 BEGIN BOND
M  V30 1 2 1 2
M  V30 2 1 2 3
M  V30 3 1 3 4
M  V30 4 1 4 5
M  V30 5 1 5 6
M  V30 6 1 6 7
M  V30 7 1 7 8
M  V30 8 1 8 9
M  V30 9 1 9 10
M  V30 10 1 10 11
M  V30 11 1 11 12
M  V30 12 1 12 13
M  V30 13 2 13 14
M  V30 14 1 13 15
M  V30 15 1 15 16
M  V30 16 2 16 17
M  V30 17 1 17 18
M  V30 18 1 18 19
M  V30 19 1 19 20
M  V30 20 1 19 21
M  V30 21 1 19 22
M  V30 22 2 18 23
M  V30 23 1 23 24
M  V30 24 1 24 25
M  V30 25 1 25 26
M  V30 26 1 25 27
M  V30 27 1 25 28
M  V30 28 2 24 29
M  V30 29 1 11 30
M  V30 30 2 30 31
M  V30 31 1 31 32
M  V30 32 1 32 33
M  V30 33 2 33 34
M  V30 34 1 34 35
M  V30 35 2 35 36
M  V30 36 1 36 37
M  V30 37 1 37 38
M  V30 38 1 36 39
M  V30 39 2 39 40
M  V30 40 2 32 41
M  V30 41 1 41 42
M  V30 42 2 42 43
M  V30 43 1 43 44
M  V30 44 2 44 45
M  V30 45 1 45 46
M  V30 46 1 46 47
M  V30 47 1 45 48
M  V30 48 2 48 49
M  V30 49 1 8 3
M  V30 50 1 29 16
M  V30 51 1 49 30
M  V30 52 1 10 5
M  V30 53 1 40 33
M  V30 54 1 49 42
M  V30 55 1 1 50
M  V30 56 1 1 51
M  V30 57 1 2 52
M  V30 58 1 3 53 CFG=3
M  V30 59 1 4 54
M  V30 60 1 4 55
M  V30 61 1 6 56
M  V30 62 1 6 57
M  V30 63 1 7 58
M  V30 64 1 7 59
M  V30 65 1 8 60 CFG=3
M  V30 66 1 9 61
M  V30 67 1 9 62
M  V30 68 1 10 63 CFG=3
M  V30 69 1 11 64 CFG=1
M  V30 70 1 12 65
M  V30 71 1 15 66
M  V30 72 1 17 67
M  V30 73 1 23 68
M  V30 74 1 29 69
M  V30 75 1 31 70
M  V30 76 1 34 71
M  V30 77 1 35 72
M  V30 78 1 38 73
M  V30 79 1 38 74
M  V30 80 1 38 75
M  V30 81 1 39 76
M  V30 82 1 40 77
M  V30 83 1 43 78
M  V30 84 1 44 79
M  V30 85 1 47 80
M  V30 86 1 47 81
M  V30 87 1 47 82
M  V30 88 1 48 83
M  V30 END BOND
M  V30 END CTAB
M  END
>  <catalyst_id>  (1) 
RFMFWOMXRSKBGV_ZLAMDBOYSA_NONE

>  <source_smiles>  (1) 
C=C[C@H]1CN2CC[C@H]1C[C@H]2[C@@H](NC(=S)Nc1cc(C(F)(F)F)cc(C(F)(F)F)c1)c1cc(-c2ccc(OC)cc2)nc2ccc(OC)cc12

>  <axial_configuration>  (1) 
none

>  <inchikey>  (1) 
RFMFWOMXRSKBGV-ZLAMDBOYSA-N

>  <build_source>  (1) 
smiles

>  <final_biaryl_angle_deg>  (1) 
145.93

>  <rdkit_version>  (1) 
2025.09.6

>  <random_seed>  (1) 
42

>  <generated_at>  (1) 
2026-05-19T12:33:03

$$$$
