catalyst327
     RDKit          3D

  0  0  0  0  0  0  0  0  0  0999 V3000
M  V30 BEGIN CTAB
M  V30 COUNTS 106 113 0 0 0
M  V30 BEGIN ATOM
M  V30 1 C -4.944335 -0.927661 2.967078 0
M  V30 2 C -6.156971 -0.768823 2.420755 0
M  V30 3 C -6.719300 0.419171 1.664027 0 CFG=1
M  V30 4 C -5.790039 1.645352 1.441900 0
M  V30 5 N -5.767536 2.092326 0.023397 0
M  V30 6 C -7.156556 2.401968 -0.385061 0
M  V30 7 C -8.057248 1.161213 -0.314124 0
M  V30 8 C -7.267763 -0.018565 0.278840 0 CFG=1
M  V30 9 C -6.081731 -0.304132 -0.659775 0
M  V30 10 C -5.249169 0.985166 -0.853110 0 CFG=2
M  V30 11 C -3.706887 0.735059 -0.674283 0 CFG=2
M  V30 12 N -3.006539 2.026470 -0.527630 0
M  V30 13 C -1.785927 2.249449 0.037911 0
M  V30 14 S -1.454952 3.772274 0.622983 0
M  V30 15 N -0.960529 1.170102 0.096701 0
M  V30 16 C 0.400427 1.108326 0.627403 0 CFG=2
M  V30 17 C 1.004581 -0.221771 0.240939 0
M  V30 18 C 1.544466 -0.590123 -0.981522 0
M  V30 19 C 1.990049 -1.903422 -1.138059 0
M  V30 20 C 1.888110 -2.823860 -0.082597 0
M  V30 21 C 1.333409 -2.446367 1.142740 0
M  V30 22 C 0.898187 -1.141258 1.290750 0
M  V30 23 C 0.225960 -0.511167 2.477799 0
M  V30 24 C 0.449573 0.994903 2.187971 0 CFG=1
M  V30 25 O 1.748847 1.300192 2.756431 0
M  V30 26 C 2.206060 2.564358 2.488831 0
M  V30 27 C 1.577701 3.688492 3.013508 0
M  V30 28 C 2.093567 4.952701 2.728781 0
M  V30 29 C 3.241114 5.094079 1.929957 0
M  V30 30 C 3.809917 6.458037 1.620379 0
M  V30 31 F 5.003410 6.676128 2.238396 0
M  V30 32 F 2.999860 7.483309 2.009487 0
M  V30 33 F 4.033100 6.648360 0.290828 0
M  V30 34 C 3.879216 3.943377 1.428537 0
M  V30 35 C 3.373345 2.676304 1.711699 0
M  V30 36 N 3.924390 1.468961 1.234986 0
M  V30 37 C 5.048711 1.274949 0.457522 0
M  V30 38 O 5.827006 2.156601 0.120737 0
M  V30 39 N 5.154105 -0.063095 0.103558 0
M  V30 40 C 6.185778 -0.685124 -0.625664 0
M  V30 41 C 5.994856 -2.027434 -0.975588 0
M  V30 42 C 6.964974 -2.737366 -1.701366 0
M  V30 43 C 6.723422 -4.173237 -2.097810 0
M  V30 44 F 7.861418 -4.919559 -2.118665 0
M  V30 45 F 5.867562 -4.821850 -1.258451 0
M  V30 46 F 6.178427 -4.280227 -3.340025 0
M  V30 47 C 8.141574 -2.077070 -2.083084 0
M  V30 48 C 8.360775 -0.737071 -1.727067 0
M  V30 49 C 9.623108 -0.018737 -2.143491 0
M  V30 50 F 9.434099 0.770410 -3.235541 0
M  V30 51 F 10.634463 -0.871967 -2.472352 0
M  V30 52 F 10.124813 0.789370 -1.170451 0
M  V30 53 C 7.371372 -0.051321 -1.000151 0
M  V30 54 C -3.129029 -0.078900 -1.831247 0
M  V30 55 C -3.025016 0.535776 -3.088532 0
M  V30 56 C -2.476825 -0.171843 -4.136595 0
M  V30 57 N -2.024807 -1.434194 -4.026174 0
M  V30 58 C -2.107659 -2.037089 -2.831444 0
M  V30 59 C -1.617491 -3.330814 -2.733553 0
M  V30 60 C -1.638155 -4.048400 -1.534298 0
M  V30 61 C -2.165988 -3.461730 -0.395139 0
M  V30 62 O -2.249102 -4.032391 0.844093 0
M  V30 63 C -1.724676 -5.347563 0.980503 0
M  V30 64 C -2.671888 -2.161334 -0.476583 0
M  V30 65 C -2.655392 -1.416581 -1.684604 0
M  V30 66 H -4.699199 -1.850927 3.486786 0
M  V30 67 H -4.165312 -0.175874 2.933912 0
M  V30 68 H -6.858620 -1.596323 2.539994 0
M  V30 69 H -7.575967 0.765800 2.260481 0
M  V30 70 H -6.146531 2.477180 2.064574 0
M  V30 71 H -4.764558 1.479072 1.778173 0
M  V30 72 H -7.561443 3.198422 0.251970 0
M  V30 73 H -7.163069 2.812167 -1.402556 0
M  V30 74 H -8.938286 1.374356 0.302613 0
M  V30 75 H -8.418394 0.902627 -1.316804 0
M  V30 76 H -7.913561 -0.900277 0.361138 0
M  V30 77 H -6.457881 -0.642270 -1.633513 0
M  V30 78 H -5.479618 -1.122934 -0.254432 0
M  V30 79 H -5.398393 1.329756 -1.886332 0
M  V30 80 H -3.542880 0.227897 0.278697 0
M  V30 81 H -3.648487 2.807593 -0.401881 0
M  V30 82 H -1.153376 0.459964 -0.593504 0
M  V30 83 H 0.991948 1.934094 0.224215 0
M  V30 84 H 1.602788 0.115888 -1.805538 0
M  V30 85 H 2.400026 -2.221659 -2.094543 0
M  V30 86 H 2.224163 -3.848117 -0.229513 0
M  V30 87 H 1.231915 -3.166192 1.949113 0
M  V30 88 H 0.691859 -0.828408 3.415526 0
M  V30 89 H -0.839484 -0.764455 2.471000 0
M  V30 90 H -0.311305 1.592303 2.701713 0
M  V30 91 H 0.696191 3.593541 3.640347 0
M  V30 92 H 1.593297 5.832785 3.131583 0
M  V30 93 H 4.769332 4.069123 0.816606 0
M  V30 94 H 3.449945 0.642502 1.576067 0
M  V30 95 H 4.334922 -0.626113 0.288511 0
M  V30 96 H 5.078510 -2.539232 -0.685091 0
M  V30 97 H 8.897932 -2.612874 -2.659410 0
M  V30 98 H 7.560015 0.987049 -0.735177 0
M  V30 99 H -3.349545 1.560561 -3.245523 0
M  V30 100 H -2.376734 0.273075 -5.122625 0
M  V30 101 H -1.198092 -3.797385 -3.622744 0
M  V30 102 H -1.232575 -5.054010 -1.534123 0
M  V30 103 H -0.652478 -5.370364 0.758989 0
M  V30 104 H -2.273929 -6.057988 0.353941 0
M  V30 105 H -1.855473 -5.652529 2.023176 0
M  V30 106 H -3.077890 -1.741471 0.438795 0
M  V30 END ATOM
M  V30 BEGIN BOND
M  V30 1 2 1 2
M  V30 2 1 2 3
M  V30 3 1 3 4
M  V30 4 1 4 5
M  V30 5 1 5 6
M  V30 6 1 6 7
M  V30 7 1 7 8
M  V30 8 1 8 9
M  V30 9 1 9 10
M  V30 10 1 10 11
M  V30 11 1 11 12
M  V30 12 1 12 13
M  V30 13 2 13 14
M  V30 14 1 13 15
M  V30 15 1 15 16
M  V30 16 1 16 17
M  V30 17 2 17 18
M  V30 18 1 18 19
M  V30 19 2 19 20
M  V30 20 1 20 21
M  V30 21 2 21 22
M  V30 22 1 22 23
M  V30 23 1 23 24
M  V30 24 1 24 25
M  V30 25 1 25 26
M  V30 26 2 26 27
M  V30 27 1 27 28
M  V30 28 2 28 29
M  V30 29 1 29 30
M  V30 30 1 30 31
M  V30 31 1 30 32
M  V30 32 1 30 33
M  V30 33 1 29 34
M  V30 34 2 34 35
M  V30 35 1 35 36
M  V30 36 1 36 37
M  V30 37 2 37 38
M  V30 38 1 37 39
M  V30 39 1 39 40
M  V30 40 2 40 41
M  V30 41 1 41 42
M  V30 42 1 42 43
M  V30 43 1 43 44
M  V30 44 1 43 45
M  V30 45 1 43 46
M  V30 46 2 42 47
M  V30 47 1 47 48
M  V30 48 1 48 49
M  V30 49 1 49 50
M  V30 50 1 49 51
M  V30 51 1 49 52
M  V30 52 2 48 53
M  V30 53 1 11 54
M  V30 54 2 54 55
M  V30 55 1 55 56
M  V30 56 2 56 57
M  V30 57 1 57 58
M  V30 58 2 58 59
M  V30 59 1 59 60
M  V30 60 2 60 61
M  V30 61 1 61 62
M  V30 62 1 62 63
M  V30 63 1 61 64
M  V30 64 2 64 65
M  V30 65 1 8 3
M  V30 66 1 24 16
M  V30 67 1 35 26
M  V30 68 1 53 40
M  V30 69 1 65 54
M  V30 70 1 10 5
M  V30 71 1 22 17
M  V30 72 1 65 58
M  V30 73 1 1 66
M  V30 74 1 1 67
M  V30 75 1 2 68
M  V30 76 1 3 69 CFG=1
M  V30 77 1 4 70
M  V30 78 1 4 71
M  V30 79 1 6 72
M  V30 80 1 6 73
M  V30 81 1 7 74
M  V30 82 1 7 75
M  V30 83 1 8 76 CFG=1
M  V30 84 1 9 77
M  V30 85 1 9 78
M  V30 86 1 10 79 CFG=3
M  V30 87 1 11 80 CFG=1
M  V30 88 1 12 81
M  V30 89 1 15 82
M  V30 90 1 16 83 CFG=1
M  V30 91 1 18 84
M  V30 92 1 19 85
M  V30 93 1 20 86
M  V30 94 1 21 87
M  V30 95 1 23 88
M  V30 96 1 23 89
M  V30 97 1 24 90 CFG=1
M  V30 98 1 27 91
M  V30 99 1 28 92
M  V30 100 1 34 93
M  V30 101 1 36 94
M  V30 102 1 39 95
M  V30 103 1 41 96
M  V30 104 1 47 97
M  V30 105 1 53 98
M  V30 106 1 55 99
M  V30 107 1 56 100
M  V30 108 1 59 101
M  V30 109 1 60 102
M  V30 110 1 63 103
M  V30 111 1 63 104
M  V30 112 1 63 105
M  V30 113 1 64 106
M  V30 END BOND
M  V30 END CTAB
M  END
>  <catalyst_id>  (1) 
SIGLZHKINDNGRE_KDOARPKVSA_NONE

>  <source_smiles>  (1) 
C=C[C@H]1CN2CC[C@H]1C[C@@H]2[C@H](NC(=S)N[C@@H]1c2ccccc2C[C@H]1Oc1ccc(C(F)(F)F)cc1NC(=O)Nc1cc(C(F)(F)F)cc(C(F)(F)F)c1)c1ccnc2ccc(OC)cc12

>  <axial_configuration>  (1) 
none

>  <inchikey>  (1) 
SIGLZHKINDNGRE-KDOARPKVSA-N

>  <build_source>  (1) 
smiles

>  <rdkit_version>  (1) 
2025.09.6

>  <random_seed>  (1) 
42

>  <generated_at>  (1) 
2026-05-19T12:32:44

$$$$
