catalyst146
     RDKit          3D

  0  0  0  0  0  0  0  0  0  0999 V3000
M  V30 BEGIN CTAB
M  V30 COUNTS 71 75 0 0 0
M  V30 BEGIN ATOM
M  V30 1 C -5.819561 -1.582087 3.221634 0
M  V30 2 C -5.481859 -1.708658 1.743587 0
M  V30 3 C -4.262704 -2.607187 1.465857 0 CFG=1
M  V30 4 C -4.005120 -2.729484 -0.058003 0
M  V30 5 N -2.628878 -2.311738 -0.423749 0
M  V30 6 C -1.675728 -3.209383 0.267970 0
M  V30 7 C -1.861957 -3.174052 1.791210 0
M  V30 8 C -2.952077 -2.147489 2.150777 0 CFG=1
M  V30 9 C -2.492096 -0.798790 1.573115 0
M  V30 10 C -2.437541 -0.892292 0.030405 0 CFG=1
M  V30 11 C -1.136474 -0.237243 -0.561585 0 CFG=1
M  V30 12 N -0.961557 -0.649623 -1.968803 0
M  V30 13 C 0.236275 -0.728131 -2.639045 0
M  V30 14 S 0.341408 -1.842542 -3.874883 0
M  V30 15 N 1.186808 0.159100 -2.205181 0
M  V30 16 C 2.591556 0.174946 -2.304051 0
M  V30 17 C 3.374485 -0.929363 -2.637174 0
M  V30 18 C 4.778780 -0.844184 -2.652649 0
M  V30 19 C 5.604258 -2.049432 -3.037889 0
M  V30 20 F 6.875338 -1.999884 -2.548026 0
M  V30 21 F 5.080897 -3.221944 -2.585132 0
M  V30 22 F 5.729167 -2.184118 -4.385677 0
M  V30 23 C 5.394961 0.373452 -2.323932 0
M  V30 24 C 4.627809 1.490827 -1.967859 0
M  V30 25 C 5.280308 2.788085 -1.557131 0
M  V30 26 F 4.612967 3.884965 -2.010283 0
M  V30 27 F 5.348588 2.924634 -0.203611 0
M  V30 28 F 6.557970 2.915137 -2.010787 0
M  V30 29 C 3.228758 1.373897 -1.955528 0
M  V30 30 C -1.163437 1.285150 -0.436053 0
M  V30 31 C -2.110091 1.995369 -1.191108 0
M  V30 32 C -2.136734 3.370946 -1.110926 0
M  V30 33 N -1.290380 4.086699 -0.349055 0
M  V30 34 C -0.367209 3.430002 0.366643 0
M  V30 35 C 0.519799 4.190092 1.114250 0
M  V30 36 C 1.543957 3.613055 1.869906 0
M  V30 37 C 1.685226 2.234849 1.889557 0
M  V30 38 O 2.640133 1.531137 2.567116 0
M  V30 39 C 3.669892 2.287349 3.194501 0
M  V30 40 C 0.787111 1.450846 1.159498 0
M  V30 41 C -0.248607 2.020342 0.374393 0
M  V30 42 H -5.044293 -1.033901 3.764647 0
M  V30 43 H -6.758841 -1.033464 3.345777 0
M  V30 44 H -5.939205 -2.566807 3.684092 0
M  V30 45 H -5.334545 -0.708004 1.321814 0
M  V30 46 H -6.353288 -2.133646 1.229341 0
M  V30 47 H -4.504329 -3.610352 1.845076 0
M  V30 48 H -4.727115 -2.140359 -0.637449 0
M  V30 49 H -4.164306 -3.768277 -0.375770 0
M  V30 50 H -0.643930 -2.946586 0.008098 0
M  V30 51 H -1.807755 -4.235574 -0.097827 0
M  V30 52 H -0.915696 -2.906125 2.276361 0
M  V30 53 H -2.144013 -4.167695 2.159365 0
M  V30 54 H -3.058995 -2.090522 3.238310 0
M  V30 55 H -3.176878 0.002180 1.873815 0
M  V30 56 H -1.511510 -0.547483 1.994227 0
M  V30 57 H -3.292367 -0.331435 -0.372239 0
M  V30 58 H -0.276047 -0.660773 -0.038779 0
M  V30 59 H -1.587448 -1.412807 -2.224144 0
M  V30 60 H 0.781604 1.019992 -1.862771 0
M  V30 61 H 2.922879 -1.891912 -2.858920 0
M  V30 62 H 6.483856 0.446486 -2.334623 0
M  V30 63 H 2.635706 2.241802 -1.665508 0
M  V30 64 H -2.809002 1.484866 -1.847890 0
M  V30 65 H -2.855531 3.953291 -1.680649 0
M  V30 66 H 0.417819 5.273810 1.101073 0
M  V30 67 H 2.203868 4.271291 2.424970 0
M  V30 68 H 3.266898 2.897567 4.009304 0
M  V30 69 H 4.384981 1.581922 3.628478 0
M  V30 70 H 4.208768 2.903711 2.467094 0
M  V30 71 H 0.934275 0.375554 1.206630 0
M  V30 END ATOM
M  V30 BEGIN BOND
M  V30 1 1 1 2
M  V30 2 1 2 3
M  V30 3 1 3 4
M  V30 4 1 4 5
M  V30 5 1 5 6
M  V30 6 1 6 7
M  V30 7 1 7 8
M  V30 8 1 8 9
M  V30 9 1 9 10
M  V30 10 1 10 11
M  V30 11 1 11 12
M  V30 12 1 12 13
M  V30 13 2 13 14
M  V30 14 1 13 15
M  V30 15 1 15 16
M  V30 16 2 16 17
M  V30 17 1 17 18
M  V30 18 1 18 19
M  V30 19 1 19 20
M  V30 20 1 19 21
M  V30 21 1 19 22
M  V30 22 2 18 23
M  V30 23 1 23 24
M  V30 24 1 24 25
M  V30 25 1 25 26
M  V30 26 1 25 27
M  V30 27 1 25 28
M  V30 28 2 24 29
M  V30 29 1 11 30
M  V30 30 2 30 31
M  V30 31 1 31 32
M  V30 32 2 32 33
M  V30 33 1 33 34
M  V30 34 2 34 35
M  V30 35 1 35 36
M  V30 36 2 36 37
M  V30 37 1 37 38
M  V30 38 1 38 39
M  V30 39 1 37 40
M  V30 40 2 40 41
M  V30 41 1 8 3
M  V30 42 1 29 16
M  V30 43 1 41 30
M  V30 44 1 10 5
M  V30 45 1 41 34
M  V30 46 1 1 42
M  V30 47 1 1 43
M  V30 48 1 1 44
M  V30 49 1 2 45
M  V30 50 1 2 46
M  V30 51 1 3 47 CFG=1
M  V30 52 1 4 48
M  V30 53 1 4 49
M  V30 54 1 6 50
M  V30 55 1 6 51
M  V30 56 1 7 52
M  V30 57 1 7 53
M  V30 58 1 8 54 CFG=1
M  V30 59 1 9 55
M  V30 60 1 9 56
M  V30 61 1 10 57 CFG=3
M  V30 62 1 11 58 CFG=1
M  V30 63 1 12 59
M  V30 64 1 15 60
M  V30 65 1 17 61
M  V30 66 1 23 62
M  V30 67 1 29 63
M  V30 68 1 31 64
M  V30 69 1 32 65
M  V30 70 1 35 66
M  V30 71 1 36 67
M  V30 72 1 39 68
M  V30 73 1 39 69
M  V30 74 1 39 70
M  V30 75 1 40 71
M  V30 END BOND
M  V30 END CTAB
M  END
>  <catalyst_id>  (1) 
KBYUJTLQXUVPQI_FRSFCCSCSA_NONE

>  <source_smiles>  (1) 
CC[C@H]1CN2CC[C@H]1C[C@H]2[C@@H](NC(=S)Nc1cc(C(F)(F)F)cc(C(F)(F)F)c1)c1ccnc2ccc(OC)cc12

>  <axial_configuration>  (1) 
none

>  <inchikey>  (1) 
KBYUJTLQXUVPQI-FRSFCCSCSA-N

>  <build_source>  (1) 
smiles

>  <rdkit_version>  (1) 
2025.09.6

>  <random_seed>  (1) 
42

>  <generated_at>  (1) 
2026-05-19T12:29:58

$$$$
