catalyst204
     RDKit          3D

  0  0  0  0  0  0  0  0  0  0999 V3000
M  V30 BEGIN CTAB
M  V30 COUNTS 14 13 0 0 0
M  V30 BEGIN ATOM
M  V30 1 N -1.346015 -0.441563 -0.831279 0
M  V30 2 C -0.410260 -0.454812 0.327024 0 CFG=1
M  V30 3 C 0.962115 -0.989144 -0.102541 0
M  V30 4 O 1.419267 -0.302940 -1.274434 0
M  V30 5 C -0.248300 0.941831 0.935115 0
M  V30 6 O 0.594881 1.287940 1.748373 0
M  V30 7 O -1.200607 1.819303 0.537414 0
M  V30 8 H -0.802834 -0.083583 -1.624735 0
M  V30 9 H -2.035912 0.292798 -0.645477 0
M  V30 10 H -0.839285 -1.088841 1.110278 0
M  V30 11 H 1.712118 -0.861399 0.684628 0
M  V30 12 H 0.890983 -2.054276 -0.348428 0
M  V30 13 H 2.267054 -0.711547 -1.523116 0
M  V30 14 H -0.963206 2.646233 1.007177 0
M  V30 END ATOM
M  V30 BEGIN BOND
M  V30 1 1 1 2
M  V30 2 1 2 3
M  V30 3 1 3 4
M  V30 4 1 2 5
M  V30 5 2 5 6
M  V30 6 1 5 7
M  V30 7 1 1 8
M  V30 8 1 1 9
M  V30 9 1 2 10 CFG=1
M  V30 10 1 3 11
M  V30 11 1 3 12
M  V30 12 1 4 13
M  V30 13 1 7 14
M  V30 END BOND
M  V30 END CTAB
M  END
>  <catalyst_id>  (1) 
MTCFGRXMJLQNBG_REOHCLBHSA_NONE

>  <source_smiles>  (1) 
N[C@@H](CO)C(=O)O

>  <axial_configuration>  (1) 
none

>  <inchikey>  (1) 
MTCFGRXMJLQNBG-REOHCLBHSA-N

>  <build_source>  (1) 
smiles

>  <rdkit_version>  (1) 
2025.09.6

>  <random_seed>  (1) 
42

>  <generated_at>  (1) 
2026-05-19T12:30:03

$$$$
