catalyst219
     RDKit          3D

  0  0  0  0  0  0  0  0  0  0999 V3000
M  V30 BEGIN CTAB
M  V30 COUNTS 88 94 0 0 0
M  V30 BEGIN ATOM
M  V30 1 C 5.506494 2.660962 0.438669 0
M  V30 2 C 5.140863 1.180967 0.200062 0
M  V30 3 C 6.086616 0.689354 -0.917437 0
M  V30 4 C 5.215024 0.302111 1.477230 0 CFG=2
M  V30 5 C 4.679299 -1.066025 1.006850 0
M  V30 6 C 3.602070 -0.682275 -0.021283 0
M  V30 7 C 3.608626 0.874447 0.019227 0 CFG=2
M  V30 8 C 2.877984 1.580924 -1.135230 0
M  V30 9 N 3.411943 1.284750 -2.468277 0
M  V30 10 C 2.658824 0.259648 -3.197073 0
M  V30 11 C 3.219494 0.388367 -4.604205 0
M  V30 12 C 3.594590 1.859003 -4.738898 0
M  V30 13 C 3.374876 2.453034 -3.354433 0
M  V30 14 C 3.032088 1.331157 1.411904 0 CFG=1
M  V30 15 N 1.760118 0.701407 1.761320 0
M  V30 16 C 0.583928 1.287541 1.682675 0
M  V30 17 C -0.719900 0.949086 1.951633 0
M  V30 18 N -1.362526 -0.111640 2.397838 0
M  V30 19 C -2.803129 -0.168082 2.646033 0 CFG=2
M  V30 20 C -3.121980 -1.086114 3.848309 0
M  V30 21 C -4.199288 -2.037968 3.283546 0 CFG=1
M  V30 22 C -5.470589 -1.186962 3.068775 0
M  V30 23 C -5.124358 -0.356233 1.819023 0
M  V30 24 C -3.663424 -0.806421 1.485379 0 CFG=1
M  V30 25 C -3.177486 -0.409877 0.081236 0
M  V30 26 N -4.019810 -0.885950 -1.024114 0
M  V30 27 C -3.227158 -1.322121 -2.179028 0
M  V30 28 C -4.248390 -1.392512 -3.305515 0
M  V30 29 C -5.377124 -0.462687 -2.872674 0
M  V30 30 C -4.889405 0.161808 -1.575488 0
M  V30 31 C -3.715807 -2.336101 1.839740 0
M  V30 32 C -2.384782 -3.108390 1.771073 0
M  V30 33 C -4.722540 -3.187752 1.031221 0
M  V30 34 C -1.207621 2.294682 1.552825 0
M  V30 35 O -2.243840 2.912966 1.502585 0
M  V30 36 C 0.188748 2.632778 1.192698 0
M  V30 37 O 0.688192 3.603908 0.680562 0
M  V30 38 C 4.136057 0.900782 2.402183 0
M  V30 39 H 5.321146 3.254503 -0.463270 0
M  V30 40 H 6.572070 2.754468 0.682997 0
M  V30 41 H 4.961615 3.143431 1.251837 0
M  V30 42 H 6.067553 1.368357 -1.776179 0
M  V30 43 H 7.120257 0.660681 -0.551481 0
M  V30 44 H 5.860074 -0.308310 -1.300940 0
M  V30 45 H 6.198235 0.248985 1.952307 0
M  V30 46 H 4.264892 -1.662664 1.825427 0
M  V30 47 H 5.467715 -1.661363 0.533732 0
M  V30 48 H 3.887944 -1.080905 -0.996111 0
M  V30 49 H 2.631189 -1.125218 0.216755 0
M  V30 50 H 1.803760 1.366151 -1.095441 0
M  V30 51 H 2.963296 2.659696 -0.948298 0
M  V30 52 H 1.580668 0.469375 -3.204561 0
M  V30 53 H 2.811040 -0.749058 -2.807056 0
M  V30 54 H 2.497144 0.074252 -5.364290 0
M  V30 55 H 4.118956 -0.229878 -4.714720 0
M  V30 56 H 4.641978 1.951777 -5.047066 0
M  V30 57 H 2.975587 2.366938 -5.485329 0
M  V30 58 H 4.154528 3.178199 -3.101025 0
M  V30 59 H 2.402203 2.957358 -3.319331 0
M  V30 60 H 2.929910 2.421522 1.457445 0
M  V30 61 H 1.838200 -0.265466 2.074427 0
M  V30 62 H -0.845617 -0.954657 2.632983 0
M  V30 63 H -3.160018 0.841983 2.881674 0
M  V30 64 H -2.247695 -1.641620 4.208071 0
M  V30 65 H -3.499023 -0.504843 4.699423 0
M  V30 66 H -4.368636 -2.913603 3.914715 0
M  V30 67 H -6.346824 -1.817625 2.883415 0
M  V30 68 H -5.702157 -0.548131 3.930466 0
M  V30 69 H -5.198677 0.719027 2.016261 0
M  V30 70 H -5.840148 -0.582161 1.024785 0
M  V30 71 H -3.060394 0.678193 0.024570 0
M  V30 72 H -2.167317 -0.820306 -0.044510 0
M  V30 73 H -2.451103 -0.587338 -2.431335 0
M  V30 74 H -2.746801 -2.290889 -2.007927 0
M  V30 75 H -4.632691 -2.412635 -3.430142 0
M  V30 76 H -3.808448 -1.077660 -4.258673 0
M  V30 77 H -6.291131 -1.044879 -2.699810 0
M  V30 78 H -5.599660 0.294843 -3.630436 0
M  V30 79 H -5.726572 0.419634 -0.923028 0
M  V30 80 H -4.329532 1.080347 -1.798775 0
M  V30 81 H -2.543786 -4.164776 2.019475 0
M  V30 82 H -1.616030 -2.764071 2.460528 0
M  V30 83 H -1.964656 -3.072041 0.759434 0
M  V30 84 H -5.697021 -2.721527 0.874759 0
M  V30 85 H -4.909169 -4.139146 1.542654 0
M  V30 86 H -4.325399 -3.426332 0.039979 0
M  V30 87 H 4.527211 1.769351 2.942595 0
M  V30 88 H 3.794652 0.185456 3.159079 0
M  V30 END ATOM
M  V30 BEGIN BOND
M  V30 1 1 1 2
M  V30 2 1 2 3
M  V30 3 1 2 4
M  V30 4 1 4 5
M  V30 5 1 5 6
M  V30 6 1 6 7
M  V30 7 1 7 8 CFG=3
M  V30 8 1 8 9
M  V30 9 1 9 10
M  V30 10 1 10 11
M  V30 11 1 11 12
M  V30 12 1 12 13
M  V30 13 1 7 14
M  V30 14 1 14 15
M  V30 15 1 15 16
M  V30 16 2 16 17
M  V30 17 1 17 18
M  V30 18 1 18 19
M  V30 19 1 19 20
M  V30 20 1 20 21
M  V30 21 1 21 22
M  V30 22 1 22 23
M  V30 23 1 23 24
M  V30 24 1 24 25 CFG=3
M  V30 25 1 25 26
M  V30 26 1 26 27
M  V30 27 1 27 28
M  V30 28 1 28 29
M  V30 29 1 29 30
M  V30 30 1 24 31
M  V30 31 1 31 32
M  V30 32 1 31 33
M  V30 33 1 17 34
M  V30 34 2 34 35
M  V30 35 1 34 36
M  V30 36 2 36 37
M  V30 37 1 14 38
M  V30 38 1 7 2
M  V30 39 1 13 9
M  V30 40 1 36 16
M  V30 41 1 38 4
M  V30 42 1 24 19
M  V30 43 1 30 26
M  V30 44 1 31 21
M  V30 45 1 1 39
M  V30 46 1 1 40
M  V30 47 1 1 41
M  V30 48 1 3 42
M  V30 49 1 3 43
M  V30 50 1 3 44
M  V30 51 1 4 45 CFG=1
M  V30 52 1 5 46
M  V30 53 1 5 47
M  V30 54 1 6 48
M  V30 55 1 6 49
M  V30 56 1 8 50
M  V30 57 1 8 51
M  V30 58 1 10 52
M  V30 59 1 10 53
M  V30 60 1 11 54
M  V30 61 1 11 55
M  V30 62 1 12 56
M  V30 63 1 12 57
M  V30 64 1 13 58
M  V30 65 1 13 59
M  V30 66 1 14 60 CFG=3
M  V30 67 1 15 61
M  V30 68 1 18 62
M  V30 69 1 19 63 CFG=1
M  V30 70 1 20 64
M  V30 71 1 20 65
M  V30 72 1 21 66 CFG=1
M  V30 73 1 22 67
M  V30 74 1 22 68
M  V30 75 1 23 69
M  V30 76 1 23 70
M  V30 77 1 25 71
M  V30 78 1 25 72
M  V30 79 1 27 73
M  V30 80 1 27 74
M  V30 81 1 28 75
M  V30 82 1 28 76
M  V30 83 1 29 77
M  V30 84 1 29 78
M  V30 85 1 30 79
M  V30 86 1 30 80
M  V30 87 1 32 81
M  V30 88 1 32 82
M  V30 89 1 32 83
M  V30 90 1 33 84
M  V30 91 1 33 85
M  V30 92 1 33 86
M  V30 93 1 38 87
M  V30 94 1 38 88
M  V30 END BOND
M  V30 END CTAB
M  END
>  <catalyst_id>  (1) 
NMQIPAYDKDQFOU_ARXDBZGYSA_NONE

>  <source_smiles>  (1) 
CC1(C)[C@@H]2CC[C@@]1(CN1CCCC1)C(Nc1c(NC3C[C@H]4CC[C@]3(CN3CCCC3)C4(C)C)c(=O)c1=O)C2

>  <axial_configuration>  (1) 
none

>  <inchikey>  (1) 
NMQIPAYDKDQFOU-ARXDBZGYSA-N

>  <build_source>  (1) 
smiles

>  <rdkit_version>  (1) 
2025.09.6

>  <random_seed>  (1) 
42

>  <generated_at>  (1) 
2026-05-19T12:34:51

$$$$
