catalyst16
     RDKit          3D

  0  0  0  0  0  0  0  0  0  0999 V3000
M  V30 BEGIN CTAB
M  V30 COUNTS 20 20 0 0 0
M  V30 BEGIN ATOM
M  V30 1 C 3.200903 -0.162639 0.786373 0
M  V30 2 O 1.839984 0.211659 1.002832 0
M  V30 3 C 1.140563 0.444795 -0.144937 0
M  V30 4 O 1.602616 0.364402 -1.277841 0
M  V30 5 C -0.299371 0.864527 0.183376 0 CFG=2
M  V30 6 C -1.061269 -0.226752 0.935022 0
M  V30 7 C -2.249505 -0.566700 0.048271 0
M  V30 8 C -1.802628 -0.134933 -1.330715 0
M  V30 9 N -1.078783 1.105080 -1.059605 0
M  V30 10 H 3.664971 -0.331609 1.761986 0
M  V30 11 H 3.743477 0.641366 0.279337 0
M  V30 12 H 3.256273 -1.092135 0.211095 0
M  V30 13 H -0.252318 1.798574 0.753282 0
M  V30 14 H -0.450378 -1.123117 1.092578 0
M  V30 15 H -1.404804 0.122143 1.914707 0
M  V30 16 H -3.127947 0.009529 0.364365 0
M  V30 17 H -2.507509 -1.628951 0.092021 0
M  V30 18 H -1.137497 -0.882095 -1.779214 0
M  V30 19 H -2.647105 0.031434 -2.005058 0
M  V30 20 H -0.429674 1.300888 -1.827872 0
M  V30 END ATOM
M  V30 BEGIN BOND
M  V30 1 1 1 2
M  V30 2 1 2 3
M  V30 3 2 3 4
M  V30 4 1 3 5
M  V30 5 1 5 6
M  V30 6 1 6 7
M  V30 7 1 7 8
M  V30 8 1 8 9
M  V30 9 1 9 5
M  V30 10 1 1 10
M  V30 11 1 1 11
M  V30 12 1 1 12
M  V30 13 1 5 13 CFG=1
M  V30 14 1 6 14
M  V30 15 1 6 15
M  V30 16 1 7 16
M  V30 17 1 7 17
M  V30 18 1 8 18
M  V30 19 1 8 19
M  V30 20 1 9 20
M  V30 END BOND
M  V30 END CTAB
M  END
>  <catalyst_id>  (1) 
BLWYXBNNBYXPPL_YFKPBYRVSA_NONE

>  <source_smiles>  (1) 
COC(=O)[C@@H]1CCCN1

>  <axial_configuration>  (1) 
none

>  <inchikey>  (1) 
BLWYXBNNBYXPPL-YFKPBYRVSA-N

>  <build_source>  (1) 
smiles

>  <rdkit_version>  (1) 
2025.09.6

>  <random_seed>  (1) 
42

>  <generated_at>  (1) 
2026-05-19T12:33:24

$$$$
