catalyst434
     RDKit          3D

  0  0  0  0  0  0  0  0  0  0999 V3000
M  V30 BEGIN CTAB
M  V30 COUNTS 56 59 0 0 0
M  V30 BEGIN ATOM
M  V30 1 C 1.536926 -4.068095 -1.428117 0
M  V30 2 O 0.867997 -2.811434 -1.436146 0
M  V30 3 C 1.685739 -1.718652 -1.271914 0
M  V30 4 C 2.931981 -1.635197 -1.897718 0
M  V30 5 C 3.685609 -0.466758 -1.811023 0
M  V30 6 C 3.200180 0.641823 -1.118006 0
M  V30 7 N 3.993128 1.828374 -1.098348 0
M  V30 8 S 5.466043 1.818629 -0.251273 0
M  V30 9 O 6.331966 0.834128 -0.877659 0
M  V30 10 O 5.873754 3.214936 -0.242475 0
M  V30 11 C 5.024901 1.288832 1.482470 0
M  V30 12 F 6.068303 1.436330 2.346649 0
M  V30 13 F 4.640110 -0.016518 1.547596 0
M  V30 14 F 3.991486 2.026262 1.985004 0
M  V30 15 C 1.951509 0.580468 -0.472848 0
M  V30 16 C 1.179439 -0.620629 -0.538609 0
M  V30 17 C -0.170942 -0.659658 0.105490 0
M  V30 18 C -0.508362 -1.641385 1.065376 0
M  V30 19 O 0.485998 -2.514800 1.435415 0
M  V30 20 C 0.096646 -3.683930 2.142548 0
M  V30 21 C -1.780912 -1.641269 1.638510 0
M  V30 22 C -2.715728 -0.663811 1.291472 0
M  V30 23 C -2.405217 0.361836 0.389086 0
M  V30 24 N -3.340910 1.349500 0.048626 0
M  V30 25 C -4.122446 1.969348 1.133942 0
M  V30 26 C -5.581904 1.720143 0.767553 0
M  V30 27 C -5.544015 1.683830 -0.749219 0
M  V30 28 C -4.259498 0.909647 -1.021438 0
M  V30 29 C -1.124155 0.362501 -0.205676 0
M  V30 30 C -0.692443 1.490323 -1.129921 0
M  V30 31 N 0.272962 2.429330 -0.519989 0
M  V30 32 C 1.338914 1.769064 0.242490 0
M  V30 33 H 0.791950 -4.840373 -1.213408 0
M  V30 34 H 1.964560 -4.282936 -2.412231 0
M  V30 35 H 2.304775 -4.119051 -0.647980 0
M  V30 36 H 3.318466 -2.452377 -2.498328 0
M  V30 37 H 4.637278 -0.417320 -2.336652 0
M  V30 38 H 3.500365 2.721433 -1.043353 0
M  V30 39 H -0.691935 -4.229340 1.613166 0
M  V30 40 H -0.207857 -3.438515 3.164862 0
M  V30 41 H 0.969245 -4.341289 2.205518 0
M  V30 42 H -2.075859 -2.378982 2.376579 0
M  V30 43 H -3.701323 -0.711557 1.746790 0
M  V30 44 H -3.886851 1.605075 2.139525 0
M  V30 45 H -3.916304 3.046259 1.122588 0
M  V30 46 H -5.910562 0.750410 1.159880 0
M  V30 47 H -6.249169 2.493387 1.158038 0
M  V30 48 H -5.468245 2.701411 -1.150842 0
M  V30 49 H -6.423804 1.203577 -1.186037 0
M  V30 50 H -3.854881 1.142408 -2.011714 0
M  V30 51 H -4.465063 -0.167687 -0.970644 0
M  V30 52 H -1.547983 2.079352 -1.475989 0
M  V30 53 H -0.276801 1.070738 -2.055528 0
M  V30 54 H -0.260117 3.008666 0.129282 0
M  V30 55 H 2.095965 2.524469 0.471377 0
M  V30 56 H 0.977095 1.459077 1.232272 0
M  V30 END ATOM
M  V30 BEGIN BOND
M  V30 1 1 1 2
M  V30 2 1 2 3
M  V30 3 2 3 4
M  V30 4 1 4 5
M  V30 5 2 5 6
M  V30 6 1 6 7
M  V30 7 1 7 8
M  V30 8 2 8 9
M  V30 9 2 8 10
M  V30 10 1 8 11
M  V30 11 1 11 12
M  V30 12 1 11 13
M  V30 13 1 11 14
M  V30 14 1 6 15
M  V30 15 2 15 16
M  V30 16 1 16 17
M  V30 17 2 17 18
M  V30 18 1 18 19
M  V30 19 1 19 20
M  V30 20 1 18 21
M  V30 21 2 21 22
M  V30 22 1 22 23
M  V30 23 1 23 24
M  V30 24 1 24 25
M  V30 25 1 25 26
M  V30 26 1 26 27
M  V30 27 1 27 28
M  V30 28 2 23 29
M  V30 29 1 29 30
M  V30 30 1 30 31
M  V30 31 1 31 32
M  V30 32 1 16 3
M  V30 33 1 29 17
M  V30 34 1 32 15
M  V30 35 1 28 24
M  V30 36 1 1 33
M  V30 37 1 1 34
M  V30 38 1 1 35
M  V30 39 1 4 36
M  V30 40 1 5 37
M  V30 41 1 7 38
M  V30 42 1 20 39
M  V30 43 1 20 40
M  V30 44 1 20 41
M  V30 45 1 21 42
M  V30 46 1 22 43
M  V30 47 1 25 44
M  V30 48 1 25 45
M  V30 49 1 26 46
M  V30 50 1 26 47
M  V30 51 1 27 48
M  V30 52 1 27 49
M  V30 53 1 28 50
M  V30 54 1 28 51
M  V30 55 1 30 52
M  V30 56 1 30 53
M  V30 57 1 31 54
M  V30 58 1 32 55
M  V30 59 1 32 56
M  V30 END BOND
M  V30 END CTAB
M  END
>  <catalyst_id>  (1) 
ZUYYDUBEFOUYMZ_UHFFFAOYSA_S

>  <source_smiles>  (1) 
COc1ccc(NS(=O)(=O)C(F)(F)F)c2c1-c1c(OC)ccc(N3CCCC3)c1CNC2

>  <axial_configuration>  (1) 
S

>  <inchikey>  (1) 
ZUYYDUBEFOUYMZ-UHFFFAOYSA-N

>  <build_source>  (1) 
smiles+axial_bridged

>  <final_biaryl_angle_deg>  (1) 
-124.85

>  <n_valid_conformers>  (1) 
12

>  <rdkit_version>  (1) 
2025.09.6

>  <random_seed>  (1) 
42

>  <generated_at>  (1) 
2026-05-19T12:33:35

$$$$
