catalyst265
     RDKit          3D

  0  0  0  0  0  0  0  0  0  0999 V3000
M  V30 BEGIN CTAB
M  V30 COUNTS 31 32 0 0 0
M  V30 BEGIN ATOM
M  V30 1 C -0.969340 -2.022559 0.656380 0
M  V30 2 C -1.221668 -0.692583 -0.075345 0
M  V30 3 C -1.045606 -0.916148 -1.592139 0
M  V30 4 C -2.689151 -0.271080 0.187122 0
M  V30 5 O -2.983736 0.971985 -0.426232 0
M  V30 6 P -2.092266 2.202530 0.083862 0 CFG=2
M  V30 7 O -2.370338 2.679554 1.468902 0
M  V30 8 O -2.289160 3.319215 -1.041730 0
M  V30 9 O -0.601435 1.681150 -0.176684 0
M  V30 10 C -0.291059 0.444583 0.460377 0 CFG=2
M  V30 11 C 1.201305 0.196674 0.318166 0
M  V30 12 C 1.921644 -0.378017 1.378369 0
M  V30 13 C 3.292254 -0.619617 1.263454 0
M  V30 14 C 3.963622 -0.287126 0.089490 0
M  V30 15 C 3.266488 0.290028 -0.968857 0
M  V30 16 C 1.896133 0.532026 -0.854819 0
M  V30 17 H -1.700102 -2.781882 0.354641 0
M  V30 18 H 0.023982 -2.426207 0.434705 0
M  V30 19 H -1.050871 -1.898234 1.741874 0
M  V30 20 H -0.059375 -1.329713 -1.826482 0
M  V30 21 H -1.165564 0.012121 -2.160510 0
M  V30 22 H -1.787074 -1.630056 -1.969682 0
M  V30 23 H -3.387020 -1.013936 -0.215058 0
M  V30 24 H -2.890892 -0.189234 1.262068 0
M  V30 25 H -1.927033 4.173609 -0.748427 0
M  V30 26 H -0.491099 0.587800 1.531756 0
M  V30 27 H 1.419885 -0.642304 2.306890 0
M  V30 28 H 3.836713 -1.065187 2.092040 0
M  V30 29 H 5.030591 -0.473436 0.000728 0
M  V30 30 H 3.789131 0.555840 -1.884032 0
M  V30 31 H 1.371040 0.990204 -1.690827 0
M  V30 END ATOM
M  V30 BEGIN BOND
M  V30 1 1 1 2
M  V30 2 1 2 3
M  V30 3 1 2 4
M  V30 4 1 4 5
M  V30 5 1 5 6
M  V30 6 2 6 7
M  V30 7 1 6 8 CFG=3
M  V30 8 1 6 9
M  V30 9 1 9 10
M  V30 10 1 10 11
M  V30 11 2 11 12
M  V30 12 1 12 13
M  V30 13 2 13 14
M  V30 14 1 14 15
M  V30 15 2 15 16
M  V30 16 1 10 2
M  V30 17 1 16 11
M  V30 18 1 1 17
M  V30 19 1 1 18
M  V30 20 1 1 19
M  V30 21 1 3 20
M  V30 22 1 3 21
M  V30 23 1 3 22
M  V30 24 1 4 23
M  V30 25 1 4 24
M  V30 26 1 8 25
M  V30 27 1 10 26 CFG=1
M  V30 28 1 12 27
M  V30 29 1 13 28
M  V30 30 1 14 29
M  V30 31 1 15 30
M  V30 32 1 16 31
M  V30 END BOND
M  V30 END CTAB
M  END
>  <catalyst_id>  (1) 
PSZSDCWNBXVDFG_SNVBAGLBSA_NONE

>  <source_smiles>  (1) 
CC1(C)COP(=O)(O)O[C@@H]1c1ccccc1

>  <axial_configuration>  (1) 
none

>  <inchikey>  (1) 
PSZSDCWNBXVDFG-SNVBAGLBSA-N

>  <build_source>  (1) 
smiles

>  <rdkit_version>  (1) 
2025.09.6

>  <random_seed>  (1) 
42

>  <generated_at>  (1) 
2026-05-19T12:40:26

$$$$
