catalyst231
     RDKit          3D

  0  0  0  0  0  0  0  0  0  0999 V3000
M  V30 BEGIN CTAB
M  V30 COUNTS 85 91 0 0 0
M  V30 BEGIN ATOM
M  V30 1 C -7.293785 -3.719787 1.802879 0
M  V30 2 C -6.197966 -3.178554 1.254838 0
M  V30 3 C -5.275636 -3.916625 0.312819 0 CFG=1
M  V30 4 C -5.138298 -3.190713 -1.050620 0
M  V30 5 N -3.733802 -3.165377 -1.533380 0
M  V30 6 C -3.206518 -4.551448 -1.496203 0
M  V30 7 C -3.108848 -5.075218 -0.052195 0
M  V30 8 C -3.851959 -4.109185 0.890989 0 CFG=1
M  V30 9 C -3.102240 -2.762230 0.851412 0
M  V30 10 C -2.885451 -2.328728 -0.623874 0 CFG=2
M  V30 11 C -3.043520 -0.779915 -0.811261 0 CFG=1
M  V30 12 O -2.302357 -0.123964 0.228760 0
M  V30 13 C -2.708164 1.216623 0.488393 0
M  V30 14 C -1.813441 1.731245 1.596016 0
M  V30 15 C -2.165589 1.382530 2.914591 0
M  V30 16 C -1.375396 1.763542 3.992528 0
M  V30 17 C -0.208679 2.487643 3.771534 0
M  V30 18 C 0.184919 2.841342 2.473446 0
M  V30 19 C 1.377755 3.559780 2.280555 0
M  V30 20 C 1.799052 3.923798 1.004207 0
M  V30 21 C 1.026449 3.579389 -0.094805 0
M  V30 22 C -0.164998 2.869348 0.082007 0
M  V30 23 C -0.618027 2.472084 1.361216 0
M  V30 24 C -2.598137 -0.345568 -2.209449 0
M  V30 25 C -3.596852 -0.235447 -3.187802 0
M  V30 26 C -3.245902 0.148997 -4.465319 0
M  V30 27 N -1.987254 0.445033 -4.836826 0
M  V30 28 C -1.015350 0.338568 -3.918819 0
M  V30 29 C 0.276177 0.667359 -4.306304 0
M  V30 30 C 1.353471 0.644013 -3.414311 0
M  V30 31 C 1.147193 0.251454 -2.102111 0
M  V30 32 N 2.118289 0.318481 -1.086572 0
M  V30 33 C 3.434725 0.731748 -1.193019 0
M  V30 34 O 4.049972 0.864441 -2.241974 0
M  V30 35 N 3.945109 0.998357 0.070681 0
M  V30 36 C 5.264397 1.363446 0.400092 0
M  V30 37 C 6.342138 1.258662 -0.480614 0
M  V30 38 C 7.637662 1.636301 -0.086623 0
M  V30 39 C 8.782206 1.539978 -1.068155 0
M  V30 40 F 10.002234 1.528140 -0.459778 0
M  V30 41 F 8.739940 0.413478 -1.830464 0
M  V30 42 F 8.810631 2.587397 -1.935995 0
M  V30 43 C 7.839653 2.129864 1.211916 0
M  V30 44 C 6.773517 2.223395 2.118265 0
M  V30 45 C 6.984584 2.767769 3.510098 0
M  V30 46 F 6.743758 4.105207 3.580906 0
M  V30 47 F 8.251947 2.586625 3.971888 0
M  V30 48 F 6.164734 2.191476 4.433052 0
M  V30 49 C 5.489856 1.838466 1.697591 0
M  V30 50 C -0.135959 -0.151506 -1.716058 0
M  V30 51 C -1.251075 -0.071450 -2.585994 0
M  V30 52 H -7.589307 -4.745169 1.601937 0
M  V30 53 H -7.923107 -3.142601 2.473957 0
M  V30 54 H -5.956795 -2.145627 1.496512 0
M  V30 55 H -5.697648 -4.914508 0.124141 0
M  V30 56 H -5.540394 -2.171566 -1.014146 0
M  V30 57 H -5.757475 -3.708667 -1.795193 0
M  V30 58 H -3.849868 -5.208544 -2.095125 0
M  V30 59 H -2.220559 -4.590373 -1.975549 0
M  V30 60 H -3.544158 -6.079465 0.008996 0
M  V30 61 H -2.057691 -5.157406 0.249729 0
M  V30 62 H -3.879879 -4.508892 1.910604 0
M  V30 63 H -2.126665 -2.870562 1.342005 0
M  V30 64 H -3.657229 -2.006068 1.416842 0
M  V30 65 H -1.834180 -2.550808 -0.861696 0
M  V30 66 H -4.098689 -0.515081 -0.666625 0
M  V30 67 H -3.753280 1.227901 0.822178 0
M  V30 68 H -2.653573 1.834019 -0.411784 0
M  V30 69 H -3.062582 0.794929 3.101660 0
M  V30 70 H -1.663561 1.489517 5.004032 0
M  V30 71 H 0.396866 2.773325 4.629383 0
M  V30 72 H 1.987461 3.851956 3.133588 0
M  V30 73 H 2.720571 4.484352 0.868462 0
M  V30 74 H 1.343922 3.860621 -1.096839 0
M  V30 75 H -0.731905 2.630161 -0.813803 0
M  V30 76 H -4.634217 -0.465217 -2.966399 0
M  V30 77 H -3.992037 0.233402 -5.250120 0
M  V30 78 H 0.450002 0.981773 -5.333483 0
M  V30 79 H 2.327138 0.958209 -3.776475 0
M  V30 80 H 1.807776 0.060965 -0.160961 0
M  V30 81 H 3.246316 1.152633 0.784657 0
M  V30 82 H 6.203803 0.874701 -1.489744 0
M  V30 83 H 8.839840 2.438817 1.521229 0
M  V30 84 H 4.660584 1.921210 2.399427 0
M  V30 85 H -0.274646 -0.488204 -0.693556 0
M  V30 END ATOM
M  V30 BEGIN BOND
M  V30 1 2 1 2
M  V30 2 1 2 3
M  V30 3 1 3 4
M  V30 4 1 4 5
M  V30 5 1 5 6
M  V30 6 1 6 7
M  V30 7 1 7 8
M  V30 8 1 8 9
M  V30 9 1 9 10
M  V30 10 1 10 11
M  V30 11 1 11 12
M  V30 12 1 12 13
M  V30 13 1 13 14
M  V30 14 2 14 15
M  V30 15 1 15 16
M  V30 16 2 16 17
M  V30 17 1 17 18
M  V30 18 2 18 19
M  V30 19 1 19 20
M  V30 20 2 20 21
M  V30 21 1 21 22
M  V30 22 2 22 23
M  V30 23 1 11 24
M  V30 24 2 24 25
M  V30 25 1 25 26
M  V30 26 2 26 27
M  V30 27 1 27 28
M  V30 28 2 28 29
M  V30 29 1 29 30
M  V30 30 2 30 31
M  V30 31 1 31 32
M  V30 32 1 32 33
M  V30 33 2 33 34
M  V30 34 1 33 35
M  V30 35 1 35 36
M  V30 36 2 36 37
M  V30 37 1 37 38
M  V30 38 1 38 39
M  V30 39 1 39 40
M  V30 40 1 39 41
M  V30 41 1 39 42
M  V30 42 2 38 43
M  V30 43 1 43 44
M  V30 44 1 44 45
M  V30 45 1 45 46
M  V30 46 1 45 47
M  V30 47 1 45 48
M  V30 48 2 44 49
M  V30 49 1 31 50
M  V30 50 2 50 51
M  V30 51 1 8 3
M  V30 52 1 23 14
M  V30 53 1 51 24
M  V30 54 1 10 5
M  V30 55 1 23 18
M  V30 56 1 51 28
M  V30 57 1 49 36
M  V30 58 1 1 52
M  V30 59 1 1 53
M  V30 60 1 2 54
M  V30 61 1 3 55 CFG=3
M  V30 62 1 4 56
M  V30 63 1 4 57
M  V30 64 1 6 58
M  V30 65 1 6 59
M  V30 66 1 7 60
M  V30 67 1 7 61
M  V30 68 1 8 62 CFG=1
M  V30 69 1 9 63
M  V30 70 1 9 64
M  V30 71 1 10 65 CFG=3
M  V30 72 1 11 66 CFG=1
M  V30 73 1 13 67
M  V30 74 1 13 68
M  V30 75 1 15 69
M  V30 76 1 16 70
M  V30 77 1 17 71
M  V30 78 1 19 72
M  V30 79 1 20 73
M  V30 80 1 21 74
M  V30 81 1 22 75
M  V30 82 1 25 76
M  V30 83 1 26 77
M  V30 84 1 29 78
M  V30 85 1 30 79
M  V30 86 1 32 80
M  V30 87 1 35 81
M  V30 88 1 37 82
M  V30 89 1 43 83
M  V30 90 1 49 84
M  V30 91 1 50 85
M  V30 END BOND
M  V30 END CTAB
M  END
>  <catalyst_id>  (1) 
NZYAJPGAISUSCO_RBBQFDSASA_NONE

>  <source_smiles>  (1) 
C=C[C@H]1CN2CC[C@H]1C[C@@H]2[C@@H](OCc1cccc2ccccc12)c1ccnc2ccc(NC(=O)Nc3cc(C(F)(F)F)cc(C(F)(F)F)c3)cc12

>  <axial_configuration>  (1) 
none

>  <inchikey>  (1) 
NZYAJPGAISUSCO-RBBQFDSASA-N

>  <build_source>  (1) 
smiles

>  <rdkit_version>  (1) 
2025.09.6

>  <random_seed>  (1) 
42

>  <generated_at>  (1) 
2026-05-19T12:34:07

$$$$
