catalyst314
     RDKit          3D

  0  0  0  0  0  0  0  0  0  0999 V3000
M  V30 BEGIN CTAB
M  V30 COUNTS 73 78 0 0 0
M  V30 BEGIN ATOM
M  V30 1 C -4.213709 -3.870169 -0.348465 0
M  V30 2 C -3.190990 -3.662738 -1.188162 0
M  V30 3 C -1.715212 -3.878050 -0.924793 0 CFG=1
M  V30 4 C -0.860778 -2.693476 -1.463689 0
M  V30 5 N 0.102072 -2.182425 -0.453024 0
M  V30 6 C 0.996113 -3.291471 -0.052605 0
M  V30 7 C 0.218064 -4.486145 0.516567 0
M  V30 8 C -1.286152 -4.154535 0.541169 0 CFG=1
M  V30 9 C -1.430740 -2.888637 1.407718 0
M  V30 10 C -0.705022 -1.706114 0.727211 0 CFG=1
M  V30 11 C 0.146255 -0.852047 1.743906 0 CFG=1
M  V30 12 N 1.106304 -0.023153 0.991725 0
M  V30 13 C 2.143892 0.605412 1.507757 0
M  V30 14 C 3.210770 1.348815 1.057182 0
M  V30 15 N 3.758639 1.818252 -0.046112 0
M  V30 16 C 3.259947 1.857931 -1.365995 0
M  V30 17 C 4.176966 1.874013 -2.427999 0
M  V30 18 C 3.755219 1.850783 -3.768083 0
M  V30 19 C 4.768393 1.849745 -4.886845 0
M  V30 20 F 4.301141 2.425166 -6.029139 0
M  V30 21 F 5.910418 2.521647 -4.571779 0
M  V30 22 F 5.155560 0.591420 -5.230644 0
M  V30 23 C 2.382732 1.781112 -4.044096 0
M  V30 24 C 1.442800 1.749401 -3.003688 0
M  V30 25 C -0.037100 1.691172 -3.301297 0
M  V30 26 F -0.307675 1.136454 -4.517735 0
M  V30 27 F -0.736222 0.950921 -2.398969 0
M  V30 28 F -0.611021 2.924225 -3.322080 0
M  V30 29 C 1.897384 1.801188 -1.674491 0
M  V30 30 C 3.741567 1.511623 2.432085 0
M  V30 31 O 4.683090 2.032314 2.977084 0
M  V30 32 C 2.609527 0.694030 2.917665 0
M  V30 33 O 2.326180 0.261867 4.008509 0
M  V30 34 C -0.728586 -0.010387 2.670478 0
M  V30 35 C -0.784391 -0.395634 4.018713 0
M  V30 36 C -1.565221 0.329166 4.894771 0
M  V30 37 N -2.299909 1.395535 4.531784 0
M  V30 38 C -2.254782 1.786715 3.250366 0
M  V30 39 C -3.002970 2.900725 2.896811 0
M  V30 40 C -3.024520 3.403581 1.592477 0
M  V30 41 C -2.280876 2.775476 0.606810 0
M  V30 42 O -2.193196 3.149368 -0.703664 0
M  V30 43 C -2.937769 4.294072 -1.099833 0
M  V30 44 C -1.529442 1.647411 0.944880 0
M  V30 45 C -1.488401 1.125650 2.262107 0
M  V30 46 H -4.080274 -4.230733 0.665253 0
M  V30 47 H -5.235088 -3.687139 -0.671155 0
M  V30 48 H -3.437770 -3.327279 -2.196324 0
M  V30 49 H -1.443417 -4.764785 -1.516282 0
M  V30 50 H -0.303780 -3.020791 -2.351762 0
M  V30 51 H -1.488347 -1.862717 -1.812339 0
M  V30 52 H 1.586899 -3.613980 -0.919321 0
M  V30 53 H 1.732981 -2.940972 0.679366 0
M  V30 54 H 0.398620 -5.378649 -0.094378 0
M  V30 55 H 0.571421 -4.712913 1.529685 0
M  V30 56 H -1.841670 -4.992490 0.975654 0
M  V30 57 H -1.018028 -3.090898 2.403547 0
M  V30 58 H -2.485350 -2.633052 1.554860 0
M  V30 59 H -1.478759 -1.044675 0.317501 0
M  V30 60 H 0.741135 -1.554556 2.343731 0
M  V30 61 H 1.128180 -0.334238 0.012367 0
M  V30 62 H 4.675049 2.266085 0.017046 0
M  V30 63 H 5.245698 1.892309 -2.214078 0
M  V30 64 H 2.041703 1.749100 -5.080371 0
M  V30 65 H 1.160422 1.828275 -0.875199 0
M  V30 66 H -0.208734 -1.236194 4.394797 0
M  V30 67 H -1.619119 0.064833 5.946982 0
M  V30 68 H -3.587777 3.400202 3.666676 0
M  V30 69 H -3.628638 4.281351 1.391776 0
M  V30 70 H -2.760189 4.455595 -2.167397 0
M  V30 71 H -2.599525 5.188475 -0.566338 0
M  V30 72 H -4.011947 4.133336 -0.960966 0
M  V30 73 H -0.962043 1.176290 0.148342 0
M  V30 END ATOM
M  V30 BEGIN BOND
M  V30 1 2 1 2
M  V30 2 1 2 3
M  V30 3 1 3 4
M  V30 4 1 4 5
M  V30 5 1 5 6
M  V30 6 1 6 7
M  V30 7 1 7 8
M  V30 8 1 8 9
M  V30 9 1 9 10
M  V30 10 1 10 11
M  V30 11 1 11 12
M  V30 12 1 12 13
M  V30 13 2 13 14
M  V30 14 1 14 15
M  V30 15 1 15 16
M  V30 16 2 16 17
M  V30 17 1 17 18
M  V30 18 1 18 19
M  V30 19 1 19 20
M  V30 20 1 19 21
M  V30 21 1 19 22
M  V30 22 2 18 23
M  V30 23 1 23 24
M  V30 24 1 24 25
M  V30 25 1 25 26
M  V30 26 1 25 27
M  V30 27 1 25 28
M  V30 28 2 24 29
M  V30 29 1 14 30
M  V30 30 2 30 31
M  V30 31 1 30 32
M  V30 32 2 32 33
M  V30 33 1 11 34
M  V30 34 2 34 35
M  V30 35 1 35 36
M  V30 36 2 36 37
M  V30 37 1 37 38
M  V30 38 2 38 39
M  V30 39 1 39 40
M  V30 40 2 40 41
M  V30 41 1 41 42
M  V30 42 1 42 43
M  V30 43 1 41 44
M  V30 44 2 44 45
M  V30 45 1 8 3
M  V30 46 1 32 13
M  V30 47 1 45 34
M  V30 48 1 10 5
M  V30 49 1 29 16
M  V30 50 1 45 38
M  V30 51 1 1 46
M  V30 52 1 1 47
M  V30 53 1 2 48
M  V30 54 1 3 49 CFG=3
M  V30 55 1 4 50
M  V30 56 1 4 51
M  V30 57 1 6 52
M  V30 58 1 6 53
M  V30 59 1 7 54
M  V30 60 1 7 55
M  V30 61 1 8 56 CFG=1
M  V30 62 1 9 57
M  V30 63 1 9 58
M  V30 64 1 10 59 CFG=3
M  V30 65 1 11 60 CFG=1
M  V30 66 1 12 61
M  V30 67 1 15 62
M  V30 68 1 17 63
M  V30 69 1 23 64
M  V30 70 1 29 65
M  V30 71 1 35 66
M  V30 72 1 36 67
M  V30 73 1 39 68
M  V30 74 1 40 69
M  V30 75 1 43 70
M  V30 76 1 43 71
M  V30 77 1 43 72
M  V30 78 1 44 73
M  V30 END BOND
M  V30 END CTAB
M  END
>  <catalyst_id>  (1) 
RWVDHFLTDHDJKH_FRSFCCSCSA_NONE

>  <source_smiles>  (1) 
C=C[C@H]1CN2CC[C@H]1C[C@H]2[C@@H](Nc1c(Nc2cc(C(F)(F)F)cc(C(F)(F)F)c2)c(=O)c1=O)c1ccnc2ccc(OC)cc12

>  <axial_configuration>  (1) 
none

>  <inchikey>  (1) 
RWVDHFLTDHDJKH-FRSFCCSCSA-N

>  <build_source>  (1) 
smiles

>  <rdkit_version>  (1) 
2025.09.6

>  <random_seed>  (1) 
42

>  <generated_at>  (1) 
2026-05-19T12:34:23

$$$$
