catalyst228
     RDKit          3D

  0  0  0  0  0  0  0  0  0  0999 V3000
M  V30 BEGIN CTAB
M  V30 COUNTS 73 78 0 0 0
M  V30 BEGIN ATOM
M  V30 1 C -0.858947 5.164916 1.426203 0
M  V30 2 C -1.013998 3.860676 1.164420 0
M  V30 3 C -2.343326 3.211751 0.861578 0 CFG=1
M  V30 4 C -2.338952 2.493858 -0.514120 0
M  V30 5 N -2.996182 1.159034 -0.451574 0
M  V30 6 C -4.330857 1.327710 0.172363 0
M  V30 7 C -4.218342 1.777691 1.638441 0
M  V30 8 C -2.762430 2.179414 1.938032 0 CFG=1
M  V30 9 C -1.896944 0.911697 1.793309 0
M  V30 10 C -2.180759 0.242840 0.426212 0 CFG=2
M  V30 11 C -0.872838 -0.297579 -0.283749 0 CFG=2
M  V30 12 N -1.146877 -0.448769 -1.728639 0
M  V30 13 C -0.433543 -1.094660 -2.627695 0
M  V30 14 C 0.837090 -1.563350 -2.872324 0
M  V30 15 N 2.055335 -1.583297 -2.370522 0
M  V30 16 C 2.759623 -0.546202 -1.717315 0
M  V30 17 C 2.294414 0.771391 -1.651760 0
M  V30 18 C 2.999654 1.764345 -0.952365 0
M  V30 19 C 2.481756 3.179864 -0.887261 0
M  V30 20 F 3.261927 4.049343 -1.585057 0
M  V30 21 F 1.220636 3.326284 -1.377344 0
M  V30 22 F 2.442116 3.654800 0.389593 0
M  V30 23 C 4.200383 1.423213 -0.312049 0
M  V30 24 C 4.687439 0.109355 -0.354559 0
M  V30 25 C 5.949169 -0.269228 0.380866 0
M  V30 26 F 5.695164 -0.647187 1.664348 0
M  V30 27 F 6.845311 0.752364 0.461730 0
M  V30 28 F 6.614859 -1.307895 -0.193591 0
M  V30 29 C 3.949825 -0.864722 -1.046919 0
M  V30 30 C 0.397097 -2.256397 -4.107435 0
M  V30 31 O 0.865137 -2.981555 -4.949787 0
M  V30 32 C -0.933222 -1.642061 -3.917907 0
M  V30 33 O -1.949273 -1.659248 -4.567694 0
M  V30 34 C -0.370857 -1.580548 0.389209 0
M  V30 35 C 0.741415 -1.488760 1.251753 0
M  V30 36 O 1.270714 -0.246197 1.476363 0
M  V30 37 C 2.176022 -0.112325 2.567191 0
M  V30 38 C 1.227440 -2.658875 1.813428 0
M  V30 39 N 0.689448 -3.880378 1.622091 0
M  V30 40 C -0.398626 -3.974539 0.850041 0
M  V30 41 C -0.948983 -5.239310 0.691876 0
M  V30 42 C -2.091627 -5.459873 -0.074937 0
M  V30 43 C -2.707785 -4.388235 -0.696303 0
M  V30 44 C -2.170363 -3.108622 -0.551347 0
M  V30 45 C -0.995961 -2.861515 0.210481 0
M  V30 46 H -1.699346 5.851833 1.442593 0
M  V30 47 H 0.126272 5.575178 1.628770 0
M  V30 48 H -0.128221 3.229018 1.158369 0
M  V30 49 H -3.114494 3.995158 0.831496 0
M  V30 50 H -1.325478 2.392071 -0.920345 0
M  V30 51 H -2.873982 3.115212 -1.244463 0
M  V30 52 H -4.890974 0.386374 0.113325 0
M  V30 53 H -4.918137 2.054591 -0.403003 0
M  V30 54 H -4.527496 0.965683 2.307693 0
M  V30 55 H -4.892554 2.622754 1.820436 0
M  V30 56 H -2.677256 2.593083 2.948976 0
M  V30 57 H -2.139196 0.206413 2.598098 0
M  V30 58 H -0.841851 1.171550 1.910380 0
M  V30 59 H -2.820172 -0.628916 0.619744 0
M  V30 60 H -0.116757 0.490064 -0.220578 0
M  V30 61 H -2.085515 -0.085110 -1.942482 0
M  V30 62 H 2.714438 -2.271530 -2.741868 0
M  V30 63 H 1.369775 1.045149 -2.157051 0
M  V30 64 H 4.755123 2.189061 0.232796 0
M  V30 65 H 4.308907 -1.894071 -1.054531 0
M  V30 66 H 1.723425 -0.456911 3.502957 0
M  V30 67 H 3.114343 -0.637308 2.365690 0
M  V30 68 H 2.406643 0.951425 2.679248 0
M  V30 69 H 2.097700 -2.675569 2.460555 0
M  V30 70 H -0.472198 -6.083210 1.186313 0
M  V30 71 H -2.494895 -6.463591 -0.177220 0
M  V30 72 H -3.603732 -4.539283 -1.293455 0
M  V30 73 H -2.695651 -2.298334 -1.049722 0
M  V30 END ATOM
M  V30 BEGIN BOND
M  V30 1 2 1 2
M  V30 2 1 2 3
M  V30 3 1 3 4
M  V30 4 1 4 5
M  V30 5 1 5 6
M  V30 6 1 6 7
M  V30 7 1 7 8
M  V30 8 1 8 9
M  V30 9 1 9 10
M  V30 10 1 10 11
M  V30 11 1 11 12
M  V30 12 1 12 13
M  V30 13 2 13 14
M  V30 14 1 14 15
M  V30 15 1 15 16
M  V30 16 2 16 17
M  V30 17 1 17 18
M  V30 18 1 18 19
M  V30 19 1 19 20
M  V30 20 1 19 21
M  V30 21 1 19 22
M  V30 22 2 18 23
M  V30 23 1 23 24
M  V30 24 1 24 25
M  V30 25 1 25 26
M  V30 26 1 25 27
M  V30 27 1 25 28
M  V30 28 2 24 29
M  V30 29 1 14 30
M  V30 30 2 30 31
M  V30 31 1 30 32
M  V30 32 2 32 33
M  V30 33 1 11 34
M  V30 34 2 34 35
M  V30 35 1 35 36
M  V30 36 1 36 37
M  V30 37 1 35 38
M  V30 38 2 38 39
M  V30 39 1 39 40
M  V30 40 2 40 41
M  V30 41 1 41 42
M  V30 42 2 42 43
M  V30 43 1 43 44
M  V30 44 2 44 45
M  V30 45 1 8 3
M  V30 46 1 32 13
M  V30 47 1 45 34
M  V30 48 1 10 5
M  V30 49 1 29 16
M  V30 50 1 45 40
M  V30 51 1 1 46
M  V30 52 1 1 47
M  V30 53 1 2 48
M  V30 54 1 3 49 CFG=3
M  V30 55 1 4 50
M  V30 56 1 4 51
M  V30 57 1 6 52
M  V30 58 1 6 53
M  V30 59 1 7 54
M  V30 60 1 7 55
M  V30 61 1 8 56 CFG=1
M  V30 62 1 9 57
M  V30 63 1 9 58
M  V30 64 1 10 59 CFG=1
M  V30 65 1 11 60 CFG=3
M  V30 66 1 12 61
M  V30 67 1 15 62
M  V30 68 1 17 63
M  V30 69 1 23 64
M  V30 70 1 29 65
M  V30 71 1 37 66
M  V30 72 1 37 67
M  V30 73 1 37 68
M  V30 74 1 38 69
M  V30 75 1 41 70
M  V30 76 1 42 71
M  V30 77 1 43 72
M  V30 78 1 44 73
M  V30 END BOND
M  V30 END CTAB
M  END
>  <catalyst_id>  (1) 
NWWTWVIQYLKYNZ_GTCRSDMLSA_NONE

>  <source_smiles>  (1) 
C=C[C@H]1CN2CC[C@H]1C[C@@H]2[C@H](Nc1c(Nc2cc(C(F)(F)F)cc(C(F)(F)F)c2)c(=O)c1=O)c1c(OC)cnc2ccccc12

>  <axial_configuration>  (1) 
none

>  <inchikey>  (1) 
NWWTWVIQYLKYNZ-GTCRSDMLSA-N

>  <build_source>  (1) 
smiles

>  <rdkit_version>  (1) 
2025.09.6

>  <random_seed>  (1) 
42

>  <generated_at>  (1) 
2026-05-19T12:34:37

$$$$
