catalyst373
     RDKit          3D

  0  0  0  0  0  0  0  0  0  0999 V3000
M  V30 BEGIN CTAB
M  V30 COUNTS 52 53 0 0 0
M  V30 BEGIN ATOM
M  V30 1 C 2.774685 1.982436 -0.044457 0
M  V30 2 C 2.153541 0.608710 0.231821 0 CFG=1
M  V30 3 O 1.158394 0.427038 -0.785646 0
M  V30 4 Si -0.411193 -0.046726 -0.465588 0 VAL=4
M  V30 5 C -1.504236 1.515740 -0.643932 0
M  V30 6 C -2.828458 1.539468 -0.167734 0
M  V30 7 C -3.619119 2.681685 -0.313606 0
M  V30 8 C -3.104422 3.813501 -0.940792 0
M  V30 9 C -1.798970 3.805450 -1.425554 0
M  V30 10 C -1.004082 2.666010 -1.281372 0
M  V30 11 C -0.630407 -0.604584 1.329949 0
M  V30 12 C -0.816567 0.339096 2.362372 0
M  V30 13 C -0.966395 -0.059352 3.693656 0
M  V30 14 C -0.928785 -1.408906 4.026137 0
M  V30 15 C -0.738838 -2.359109 3.028339 0
M  V30 16 C -0.589642 -1.961439 1.695826 0
M  V30 17 C -1.033653 -1.378502 -1.869188 0
M  V30 18 C 0.017522 -2.496843 -2.042473 0
M  V30 19 C -1.180446 -0.645672 -3.226229 0
M  V30 20 C -2.394784 -1.993811 -1.487417 0
M  V30 21 C 3.205651 -0.528734 0.149066 0 CFG=2
M  V30 22 N 2.605542 -1.865567 0.430200 0
M  V30 23 C 4.332850 -0.283821 1.154344 0
M  V30 24 O 4.340981 -0.621559 2.328530 0
M  V30 25 O 5.393790 0.354266 0.622598 0
M  V30 26 H 3.268403 1.999846 -1.022360 0
M  V30 27 H 1.997936 2.754420 -0.070001 0
M  V30 28 H 3.499283 2.266583 0.723617 0
M  V30 29 H 1.725210 0.650660 1.239330 0
M  V30 30 H -3.260338 0.671200 0.328166 0
M  V30 31 H -4.638756 2.685665 0.062714 0
M  V30 32 H -3.721672 4.700334 -1.054933 0
M  V30 33 H -1.397900 4.685751 -1.920859 0
M  V30 34 H 0.009142 2.685138 -1.680065 0
M  V30 35 H -0.843316 1.407023 2.145192 0
M  V30 36 H -1.110640 0.688367 4.469230 0
M  V30 37 H -1.044018 -1.719376 5.060859 0
M  V30 38 H -0.703489 -3.415016 3.284437 0
M  V30 39 H -0.429386 -2.739312 0.953890 0
M  V30 40 H 0.154711 -3.080846 -1.128685 0
M  V30 41 H -0.286547 -3.197104 -2.829375 0
M  V30 42 H 0.994599 -2.089357 -2.326727 0
M  V30 43 H -0.241729 -0.167903 -3.530112 0
M  V30 44 H -1.953674 0.129663 -3.188111 0
M  V30 45 H -1.465298 -1.347440 -4.018914 0
M  V30 46 H -3.170998 -1.228381 -1.383584 0
M  V30 47 H -2.345777 -2.547596 -0.545123 0
M  V30 48 H -2.732040 -2.696495 -2.258442 0
M  V30 49 H 3.627442 -0.585884 -0.861028 0
M  V30 50 H 3.351519 -2.561557 0.435864 0
M  V30 51 H 2.252223 -1.849300 1.392231 0
M  V30 52 H 6.032152 0.422137 1.363941 0
M  V30 END ATOM
M  V30 BEGIN BOND
M  V30 1 1 1 2
M  V30 2 1 2 3
M  V30 3 1 3 4
M  V30 4 1 4 5
M  V30 5 2 5 6
M  V30 6 1 6 7
M  V30 7 2 7 8
M  V30 8 1 8 9
M  V30 9 2 9 10
M  V30 10 1 4 11
M  V30 11 2 11 12
M  V30 12 1 12 13
M  V30 13 2 13 14
M  V30 14 1 14 15
M  V30 15 2 15 16
M  V30 16 1 4 17
M  V30 17 1 17 18
M  V30 18 1 17 19
M  V30 19 1 17 20
M  V30 20 1 2 21
M  V30 21 1 21 22
M  V30 22 1 21 23
M  V30 23 2 23 24
M  V30 24 1 23 25
M  V30 25 1 10 5
M  V30 26 1 16 11
M  V30 27 1 1 26
M  V30 28 1 1 27
M  V30 29 1 1 28
M  V30 30 1 2 29 CFG=1
M  V30 31 1 6 30
M  V30 32 1 7 31
M  V30 33 1 8 32
M  V30 34 1 9 33
M  V30 35 1 10 34
M  V30 36 1 12 35
M  V30 37 1 13 36
M  V30 38 1 14 37
M  V30 39 1 15 38
M  V30 40 1 16 39
M  V30 41 1 18 40
M  V30 42 1 18 41
M  V30 43 1 18 42
M  V30 44 1 19 43
M  V30 45 1 19 44
M  V30 46 1 19 45
M  V30 47 1 20 46
M  V30 48 1 20 47
M  V30 49 1 20 48
M  V30 50 1 21 49 CFG=3
M  V30 51 1 22 50
M  V30 52 1 22 51
M  V30 53 1 25 52
M  V30 END BOND
M  V30 END CTAB
M  END
>  <catalyst_id>  (1) 
VWWPJZHACDRSFD_QAPCUYQASA_NONE

>  <source_smiles>  (1) 
C[C@@H](O[Si](c1ccccc1)(c1ccccc1)C(C)(C)C)[C@H](N)C(=O)O

>  <axial_configuration>  (1) 
none

>  <inchikey>  (1) 
VWWPJZHACDRSFD-QAPCUYQASA-N

>  <build_source>  (1) 
smiles

>  <rdkit_version>  (1) 
2025.09.6

>  <random_seed>  (1) 
42

>  <generated_at>  (1) 
2026-05-19T12:29:58

$$$$
