catalyst3
     RDKit          3D

  0  0  0  0  0  0  0  0  0  0999 V3000
M  V30 BEGIN CTAB
M  V30 COUNTS 22 21 0 0 0
M  V30 BEGIN ATOM
M  V30 1 C -2.289811 -0.037414 0.931434 0
M  V30 2 C -1.550874 0.780438 -0.119562 0
M  V30 3 C -0.215680 0.170460 -0.609353 0 CFG=2
M  V30 4 C -0.481773 -1.135966 -1.372754 0
M  V30 5 C 0.825262 -0.037146 0.518116 0 CFG=2
M  V30 6 N 1.018447 1.213236 1.297260 0
M  V30 7 C 2.176561 -0.491354 -0.062527 0
M  V30 8 O 2.516534 -1.639720 -0.297243 0
M  V30 9 O 3.013348 0.534377 -0.343138 0
M  V30 10 H -3.224222 0.465007 1.202791 0
M  V30 11 H -1.699111 -0.149353 1.844922 0
M  V30 12 H -2.546980 -1.033158 0.559319 0
M  V30 13 H -1.373201 1.786539 0.278728 0
M  V30 14 H -2.215631 0.917586 -0.982076 0
M  V30 15 H 0.203303 0.878982 -1.338483 0
M  V30 16 H -0.760194 -1.949748 -0.695552 0
M  V30 17 H 0.403654 -1.453383 -1.932438 0
M  V30 18 H -1.289578 -1.006092 -2.101025 0
M  V30 19 H 0.497689 -0.814007 1.217985 0
M  V30 20 H 1.694343 1.028714 2.039256 0
M  V30 21 H 1.493474 1.879931 0.681623 0
M  V30 22 H 3.804442 0.092071 -0.717282 0
M  V30 END ATOM
M  V30 BEGIN BOND
M  V30 1 1 1 2
M  V30 2 1 2 3
M  V30 3 1 3 4
M  V30 4 1 3 5
M  V30 5 1 5 6
M  V30 6 1 5 7
M  V30 7 2 7 8
M  V30 8 1 7 9
M  V30 9 1 1 10
M  V30 10 1 1 11
M  V30 11 1 1 12
M  V30 12 1 2 13
M  V30 13 1 2 14
M  V30 14 1 3 15 CFG=3
M  V30 15 1 4 16
M  V30 16 1 4 17
M  V30 17 1 4 18
M  V30 18 1 5 19 CFG=1
M  V30 19 1 6 20
M  V30 20 1 6 21
M  V30 21 1 9 22
M  V30 END BOND
M  V30 END CTAB
M  END
>  <catalyst_id>  (1) 
AGPKZVBTJJNPAG_WHFBIAKZSA_NONE

>  <source_smiles>  (1) 
CC[C@H](C)[C@H](N)C(=O)O

>  <axial_configuration>  (1) 
none

>  <inchikey>  (1) 
AGPKZVBTJJNPAG-WHFBIAKZSA-N

>  <build_source>  (1) 
smiles

>  <rdkit_version>  (1) 
2025.09.6

>  <random_seed>  (1) 
42

>  <generated_at>  (1) 
2026-05-19T12:30:03

$$$$
