catalyst170
     RDKit          3D

  0  0  0  0  0  0  0  0  0  0999 V3000
M  V30 BEGIN CTAB
M  V30 COUNTS 53 55 0 0 0
M  V30 BEGIN ATOM
M  V30 1 C -0.380816 -1.485891 -2.592256 0
M  V30 2 C -1.328906 -1.574418 -1.375324 0
M  V30 3 C -1.357810 -3.052921 -0.908570 0
M  V30 4 C -2.756156 -1.175755 -1.806919 0
M  V30 5 Si -0.671550 -0.428501 0.127618 0 VAL=4
M  V30 6 O 0.922453 -0.772871 0.499191 0
M  V30 7 C 1.985996 -0.120270 -0.181716 0 CFG=1
M  V30 8 C 2.606344 1.023341 0.638963 0
M  V30 9 N 4.054724 0.771654 0.716531 0
M  V30 10 C 4.367482 -0.210590 -0.347212 0 CFG=2
M  V30 11 C 4.595869 0.473686 -1.699932 0
M  V30 12 O 4.378537 0.000412 -2.803575 0
M  V30 13 O 5.116475 1.717049 -1.585597 0
M  V30 14 C 3.141000 -1.102005 -0.354564 0
M  V30 15 C -1.689115 -0.816788 1.690364 0
M  V30 16 C -1.139893 -1.602823 2.720181 0
M  V30 17 C -1.881629 -1.897884 3.866334 0
M  V30 18 C -3.180232 -1.413910 4.002808 0
M  V30 19 C -3.739645 -0.632854 2.994602 0
M  V30 20 C -3.002091 -0.335303 1.846188 0
M  V30 21 C -0.827448 1.443131 -0.090585 0
M  V30 22 C -1.012826 2.046343 -1.345959 0
M  V30 23 C -1.100634 3.436563 -1.473208 0
M  V30 24 C -1.000425 4.252282 -0.350477 0
M  V30 25 C -0.810644 3.680033 0.902442 0
M  V30 26 C -0.722757 2.291689 1.031658 0
M  V30 27 H -0.739698 -2.118824 -3.412504 0
M  V30 28 H -0.298744 -0.467705 -2.982051 0
M  V30 29 H 0.629871 -1.825696 -2.339830 0
M  V30 30 H -0.367929 -3.391575 -0.580415 0
M  V30 31 H -1.678700 -3.713379 -1.722765 0
M  V30 32 H -2.054483 -3.202670 -0.075886 0
M  V30 33 H -3.472095 -1.278395 -0.984410 0
M  V30 34 H -2.806151 -0.142496 -2.162753 0
M  V30 35 H -3.108441 -1.816749 -2.623774 0
M  V30 36 H 1.689797 0.246645 -1.174594 0
M  V30 37 H 2.189435 1.086658 1.648923 0
M  V30 38 H 2.424041 1.980440 0.137006 0
M  V30 39 H 4.573611 1.634413 0.530905 0
M  V30 40 H 5.276594 -0.767222 -0.099713 0
M  V30 41 H 5.229220 2.013605 -2.513223 0
M  V30 42 H 3.028355 -1.686608 -1.273557 0
M  V30 43 H 3.171840 -1.813886 0.480685 0
M  V30 44 H -0.125476 -1.993063 2.641834 0
M  V30 45 H -1.442290 -2.505683 4.652947 0
M  V30 46 H -3.755112 -1.643696 4.895657 0
M  V30 47 H -4.751712 -0.251513 3.101981 0
M  V30 48 H -3.465772 0.284329 1.079966 0
M  V30 49 H -1.093001 1.455304 -2.253570 0
M  V30 50 H -1.248474 3.881986 -2.453937 0
M  V30 51 H -1.070648 5.331804 -0.451609 0
M  V30 52 H -0.730985 4.311213 1.783856 0
M  V30 53 H -0.569358 1.879364 2.029843 0
M  V30 END ATOM
M  V30 BEGIN BOND
M  V30 1 1 1 2
M  V30 2 1 2 3
M  V30 3 1 2 4
M  V30 4 1 2 5
M  V30 5 1 5 6
M  V30 6 1 6 7
M  V30 7 1 7 8
M  V30 8 1 8 9
M  V30 9 1 9 10
M  V30 10 1 10 11
M  V30 11 2 11 12
M  V30 12 1 11 13
M  V30 13 1 10 14
M  V30 14 1 5 15
M  V30 15 2 15 16
M  V30 16 1 16 17
M  V30 17 2 17 18
M  V30 18 1 18 19
M  V30 19 2 19 20
M  V30 20 1 5 21
M  V30 21 2 21 22
M  V30 22 1 22 23
M  V30 23 2 23 24
M  V30 24 1 24 25
M  V30 25 2 25 26
M  V30 26 1 14 7
M  V30 27 1 20 15
M  V30 28 1 26 21
M  V30 29 1 1 27
M  V30 30 1 1 28
M  V30 31 1 1 29
M  V30 32 1 3 30
M  V30 33 1 3 31
M  V30 34 1 3 32
M  V30 35 1 4 33
M  V30 36 1 4 34
M  V30 37 1 4 35
M  V30 38 1 7 36 CFG=3
M  V30 39 1 8 37
M  V30 40 1 8 38
M  V30 41 1 9 39
M  V30 42 1 10 40 CFG=1
M  V30 43 1 13 41
M  V30 44 1 14 42
M  V30 45 1 14 43
M  V30 46 1 16 44
M  V30 47 1 17 45
M  V30 48 1 18 46
M  V30 49 1 19 47
M  V30 50 1 20 48
M  V30 51 1 22 49
M  V30 52 1 23 50
M  V30 53 1 24 51
M  V30 54 1 25 52
M  V30 55 1 26 53
M  V30 END BOND
M  V30 END CTAB
M  END
>  <catalyst_id>  (1) 
LHSRURYOCDIZEW_APWZRJJASA_NONE

>  <source_smiles>  (1) 
CC(C)(C)[Si](O[C@H]1CN[C@H](C(=O)O)C1)(c1ccccc1)c1ccccc1

>  <axial_configuration>  (1) 
none

>  <inchikey>  (1) 
LHSRURYOCDIZEW-APWZRJJASA-N

>  <build_source>  (1) 
smiles

>  <rdkit_version>  (1) 
2025.09.6

>  <random_seed>  (1) 
42

>  <generated_at>  (1) 
2026-05-19T12:29:59

$$$$
