catalyst303
     RDKit          3D

  0  0  0  0  0  0  0  0  0  0999 V3000
M  V30 BEGIN CTAB
M  V30 COUNTS 58 64 0 0 0
M  V30 BEGIN ATOM
M  V30 1 O -0.674249 2.993109 -1.617608 0
M  V30 2 P -0.050306 2.188941 -0.520219 0
M  V30 3 O 0.773356 3.119776 0.501746 0
M  V30 4 O -1.052919 1.369119 0.438208 0
M  V30 5 C -1.535547 0.168440 -0.036246 0
M  V30 6 C -2.904587 0.109006 -0.344566 0
M  V30 7 C -3.801036 1.258141 -0.168573 0
M  V30 8 C -3.923981 2.235672 -1.166570 0
M  V30 9 C -4.782435 3.324322 -0.997396 0
M  V30 10 C -5.532905 3.446683 0.170000 0
M  V30 11 C -5.424236 2.482732 1.169979 0
M  V30 12 C -4.563813 1.395423 1.001551 0
M  V30 13 C -3.417669 -1.099035 -0.818539 0
M  V30 14 C -2.596714 -2.213475 -1.013292 0
M  V30 15 C -3.152589 -3.388822 -1.546651 0
M  V30 16 C -2.363489 -4.506238 -1.803608 0
M  V30 17 C -1.003923 -4.455706 -1.542294 0
M  V30 18 C -0.442096 -3.294498 -1.004542 0
M  V30 19 C -1.214981 -2.147602 -0.689278 0
M  V30 20 C -0.659168 -0.943501 -0.122198 0
M  V30 21 C 0.701790 -0.832074 0.364795 0
M  V30 22 C 1.542527 0.207418 -0.105061 0
M  V30 23 C 2.896979 0.347470 0.248142 0
M  V30 24 C 3.734502 1.443255 -0.268006 0
M  V30 25 C 4.240878 2.425578 0.599202 0
M  V30 26 C 5.022231 3.477106 0.114524 0
M  V30 27 C 5.310265 3.561278 -1.245552 0
M  V30 28 C 4.818526 2.595464 -2.120624 0
M  V30 29 C 4.037468 1.544105 -1.634915 0
M  V30 30 C 3.437013 -0.585962 1.133850 0
M  V30 31 C 2.656728 -1.606359 1.685870 0
M  V30 32 C 3.241867 -2.489411 2.609559 0
M  V30 33 C 2.491304 -3.482693 3.231547 0
M  V30 34 C 1.140142 -3.593601 2.947979 0
M  V30 35 C 0.550058 -2.725848 2.024753 0
M  V30 36 C 1.285491 -1.728919 1.333185 0
M  V30 37 O 1.046442 1.117408 -1.012610 0
M  V30 38 H 1.291851 3.781056 0.008293 0
M  V30 39 H -3.339025 2.161147 -2.081726 0
M  V30 40 H -4.857548 4.078262 -1.776610 0
M  V30 41 H -6.198045 4.295854 0.301852 0
M  V30 42 H -6.004975 2.578363 2.083446 0
M  V30 43 H -4.483997 0.653803 1.793566 0
M  V30 44 H -4.478081 -1.156249 -1.063453 0
M  V30 45 H -4.214377 -3.438903 -1.781661 0
M  V30 46 H -2.808264 -5.404777 -2.222437 0
M  V30 47 H -0.372089 -5.313086 -1.759314 0
M  V30 48 H 0.634677 -3.295547 -0.843815 0
M  V30 49 H 4.016231 2.381031 1.663625 0
M  V30 50 H 5.405543 4.228888 0.799803 0
M  V30 51 H 5.919795 4.377995 -1.623910 0
M  V30 52 H 5.042597 2.657746 -3.182567 0
M  V30 53 H 3.660940 0.798378 -2.332949 0
M  V30 54 H 4.487052 -0.498885 1.411934 0
M  V30 55 H 4.296042 -2.400342 2.866122 0
M  V30 56 H 2.957841 -4.152756 3.948421 0
M  V30 57 H 0.535857 -4.348088 3.445004 0
M  V30 58 H -0.520556 -2.835686 1.861177 0
M  V30 END ATOM
M  V30 BEGIN BOND
M  V30 1 2 1 2
M  V30 2 1 2 3
M  V30 3 1 2 4
M  V30 4 1 4 5
M  V30 5 2 5 6
M  V30 6 1 6 7
M  V30 7 2 7 8
M  V30 8 1 8 9
M  V30 9 2 9 10
M  V30 10 1 10 11
M  V30 11 2 11 12
M  V30 12 1 6 13
M  V30 13 2 13 14
M  V30 14 1 14 15
M  V30 15 2 15 16
M  V30 16 1 16 17
M  V30 17 2 17 18
M  V30 18 1 18 19
M  V30 19 2 19 20
M  V30 20 1 20 21
M  V30 21 2 21 22
M  V30 22 1 22 23
M  V30 23 1 23 24
M  V30 24 2 24 25
M  V30 25 1 25 26
M  V30 26 2 26 27
M  V30 27 1 27 28
M  V30 28 2 28 29
M  V30 29 2 23 30
M  V30 30 1 30 31
M  V30 31 2 31 32
M  V30 32 1 32 33
M  V30 33 2 33 34
M  V30 34 1 34 35
M  V30 35 2 35 36
M  V30 36 1 22 37
M  V30 37 1 37 2
M  V30 38 1 20 5
M  V30 39 1 36 21
M  V30 40 1 12 7
M  V30 41 1 19 14
M  V30 42 1 29 24
M  V30 43 1 36 31
M  V30 44 1 3 38
M  V30 45 1 8 39
M  V30 46 1 9 40
M  V30 47 1 10 41
M  V30 48 1 11 42
M  V30 49 1 12 43
M  V30 50 1 13 44
M  V30 51 1 15 45
M  V30 52 1 16 46
M  V30 53 1 17 47
M  V30 54 1 18 48
M  V30 55 1 25 49
M  V30 56 1 26 50
M  V30 57 1 27 51
M  V30 58 1 28 52
M  V30 59 1 29 53
M  V30 60 1 30 54
M  V30 61 1 32 55
M  V30 62 1 33 56
M  V30 63 1 34 57
M  V30 64 1 35 58
M  V30 END BOND
M  V30 END CTAB
M  END
>  <catalyst_id>  (1) 
RLPAIZCRXBEKDM_UHFFFAOYSA_R

>  <source_smiles>  (1) 
O=P1(O)Oc2c(-c3ccccc3)cc3ccccc3c2-c2c(c(-c3ccccc3)cc3ccccc23)O1

>  <axial_configuration>  (1) 
R

>  <inchikey>  (1) 
RLPAIZCRXBEKDM-UHFFFAOYSA-N

>  <build_source>  (1) 
smiles+axial_free

>  <final_biaryl_angle_deg>  (1) 
85.00

>  <rdkit_version>  (1) 
2025.09.6

>  <random_seed>  (1) 
42

>  <generated_at>  (1) 
2026-05-19T12:30:00

$$$$
