catalyst266
     RDKit          3D

  0  0  0  0  0  0  0  0  0  0999 V3000
M  V30 BEGIN CTAB
M  V30 COUNTS 81 88 0 0 0
M  V30 BEGIN ATOM
M  V30 1 C -6.971024 -3.049554 -1.072169 0
M  V30 2 C -5.876312 -2.413635 -0.634978 0
M  V30 3 C -4.681387 -3.110637 -0.027823 0 CFG=1
M  V30 4 C -3.363410 -2.765486 -0.771494 0
M  V30 5 N -2.330578 -2.211540 0.144886 0
M  V30 6 C -2.046303 -3.220515 1.191442 0
M  V30 7 C -3.306349 -3.604764 1.981773 0
M  V30 8 C -4.500573 -2.776655 1.473967 0 CFG=1
M  V30 9 C -4.113753 -1.298337 1.663667 0
M  V30 10 C -2.896287 -0.962201 0.768859 0 CFG=1
M  V30 11 C -1.813337 -0.106787 1.533627 0 CFG=1
M  V30 12 N -0.532235 -0.162911 0.810038 0
M  V30 13 C 0.638802 0.144531 1.331187 0
M  V30 14 C 1.952124 0.107401 0.926549 0
M  V30 15 N 2.576447 -0.253505 -0.179370 0
M  V30 16 C 4.007043 -0.150022 -0.489609 0 CFG=1
M  V30 17 C 4.494759 1.315563 -0.457212 0
M  V30 18 C 5.983850 1.392387 -0.839357 0 CFG=2
M  V30 19 C 6.169475 0.852064 -2.266052 0
M  V30 20 C 5.701343 -0.609758 -2.337668 0 CFG=1
M  V30 21 C 6.531778 -1.457007 -1.361368 0
M  V30 22 C 6.348359 -0.934219 0.071974 0 CFG=1
M  V30 23 C 6.804005 0.534093 0.139861 0
M  V30 24 C 4.860798 -1.022521 0.457672 0
M  V30 25 C 4.219146 -0.684723 -1.935878 0
M  V30 26 C 2.416782 0.660869 2.226584 0
M  V30 27 O 3.434979 0.990355 2.786494 0
M  V30 28 C 1.006250 0.653701 2.674991 0
M  V30 29 O 0.481821 0.906958 3.732823 0
M  V30 30 C -2.266848 1.334631 1.755110 0
M  V30 31 C -2.560568 1.714198 3.073855 0
M  V30 32 C -3.001633 2.996730 3.322794 0
M  V30 33 N -3.184579 3.921040 2.363323 0
M  V30 34 C -2.894915 3.584467 1.098405 0
M  V30 35 C -3.073644 4.557231 0.125650 0
M  V30 36 C -2.799266 4.323184 -1.224818 0
M  V30 37 C -2.327319 3.082015 -1.621306 0
M  V30 38 O -2.013299 2.707318 -2.897543 0
M  V30 39 C -2.147875 3.697933 -3.909313 0
M  V30 40 C -2.143117 2.089845 -0.654218 0
M  V30 41 C -2.424503 2.304893 0.720359 0
M  V30 42 H -7.799219 -2.495125 -1.503901 0
M  V30 43 H -7.071663 -4.128734 -1.010242 0
M  V30 44 H -5.835649 -1.329638 -0.727638 0
M  V30 45 H -4.832798 -4.196541 -0.111194 0
M  V30 46 H -2.965883 -3.671047 -1.248847 0
M  V30 47 H -3.531905 -2.060639 -1.596116 0
M  V30 48 H -1.272063 -2.853432 1.875052 0
M  V30 49 H -1.614264 -4.115782 0.726568 0
M  V30 50 H -3.146420 -3.421649 3.051091 0
M  V30 51 H -3.511853 -4.675516 1.865020 0
M  V30 52 H -5.402319 -3.017123 2.048154 0
M  V30 53 H -4.954774 -0.643948 1.407066 0
M  V30 54 H -3.893520 -1.121494 2.723401 0
M  V30 55 H -3.265619 -0.351306 -0.064188 0
M  V30 56 H -1.648467 -0.590122 2.506543 0
M  V30 57 H -0.592286 -0.829948 0.033597 0
M  V30 58 H 2.007652 -0.515972 -0.984955 0
M  V30 59 H 3.899681 1.929673 -1.145976 0
M  V30 60 H 4.362144 1.757170 0.535411 0
M  V30 61 H 6.323062 2.433258 -0.792334 0
M  V30 62 H 5.599196 1.463807 -2.975847 0
M  V30 63 H 7.223907 0.923240 -2.559891 0
M  V30 64 H 5.828595 -0.989404 -3.357567 0
M  V30 65 H 7.591820 -1.421136 -1.641106 0
M  V30 66 H 6.222463 -2.507798 -1.419767 0
M  V30 67 H 6.945013 -1.538986 0.764041 0
M  V30 68 H 7.870744 0.604962 -0.105887 0
M  V30 69 H 6.686578 0.915872 1.161524 0
M  V30 70 H 4.748430 -0.708431 1.499480 0
M  V30 71 H 4.525526 -2.067345 0.417363 0
M  V30 72 H 3.867521 -1.722594 -2.011174 0
M  V30 73 H 3.615472 -0.104486 -2.646862 0
M  V30 74 H -2.430320 1.028347 3.905947 0
M  V30 75 H -3.226304 3.325338 4.333456 0
M  V30 76 H -3.437790 5.536467 0.430139 0
M  V30 77 H -2.963373 5.132869 -1.927084 0
M  V30 78 H -1.844072 3.248370 -4.859577 0
M  V30 79 H -3.189944 4.018605 -4.010656 0
M  V30 80 H -1.487925 4.550605 -3.718034 0
M  V30 81 H -1.758020 1.132979 -0.995782 0
M  V30 END ATOM
M  V30 BEGIN BOND
M  V30 1 2 1 2
M  V30 2 1 2 3
M  V30 3 1 3 4
M  V30 4 1 4 5
M  V30 5 1 5 6
M  V30 6 1 6 7
M  V30 7 1 7 8
M  V30 8 1 8 9
M  V30 9 1 9 10
M  V30 10 1 10 11
M  V30 11 1 11 12
M  V30 12 1 12 13
M  V30 13 2 13 14
M  V30 14 1 14 15
M  V30 15 1 16 15 CFG=1
M  V30 16 1 16 17
M  V30 17 1 17 18
M  V30 18 1 18 19
M  V30 19 1 19 20
M  V30 20 1 20 21
M  V30 21 1 21 22
M  V30 22 1 22 23
M  V30 23 1 22 24
M  V30 24 1 20 25
M  V30 25 1 14 26
M  V30 26 2 26 27
M  V30 27 1 26 28
M  V30 28 2 28 29
M  V30 29 1 11 30
M  V30 30 2 30 31
M  V30 31 1 31 32
M  V30 32 2 32 33
M  V30 33 1 33 34
M  V30 34 2 34 35
M  V30 35 1 35 36
M  V30 36 2 36 37
M  V30 37 1 37 38
M  V30 38 1 38 39
M  V30 39 1 37 40
M  V30 40 2 40 41
M  V30 41 1 8 3
M  V30 42 1 28 13
M  V30 43 1 41 30
M  V30 44 1 10 5
M  V30 45 1 24 16
M  V30 46 1 41 34
M  V30 47 1 25 16
M  V30 48 1 23 18
M  V30 49 1 1 42
M  V30 50 1 1 43
M  V30 51 1 2 44
M  V30 52 1 3 45 CFG=1
M  V30 53 1 4 46
M  V30 54 1 4 47
M  V30 55 1 6 48
M  V30 56 1 6 49
M  V30 57 1 7 50
M  V30 58 1 7 51
M  V30 59 1 8 52 CFG=1
M  V30 60 1 9 53
M  V30 61 1 9 54
M  V30 62 1 10 55 CFG=3
M  V30 63 1 11 56 CFG=1
M  V30 64 1 12 57
M  V30 65 1 15 58
M  V30 66 1 17 59
M  V30 67 1 17 60
M  V30 68 1 18 61 CFG=3
M  V30 69 1 19 62
M  V30 70 1 19 63
M  V30 71 1 20 64 CFG=3
M  V30 72 1 21 65
M  V30 73 1 21 66
M  V30 74 1 22 67 CFG=1
M  V30 75 1 23 68
M  V30 76 1 23 69
M  V30 77 1 24 70
M  V30 78 1 24 71
M  V30 79 1 25 72
M  V30 80 1 25 73
M  V30 81 1 31 74
M  V30 82 1 32 75
M  V30 83 1 35 76
M  V30 84 1 36 77
M  V30 85 1 39 78
M  V30 86 1 39 79
M  V30 87 1 39 80
M  V30 88 1 40 81
M  V30 END BOND
M  V30 END CTAB
M  END
>  <catalyst_id>  (1) 
PTVANMFLHLLLCC_MQGPSWITSA_NONE

>  <source_smiles>  (1) 
C=C[C@H]1CN2CC[C@H]1C[C@H]2[C@@H](Nc1c(NC23CC4CC(CC(C4)C2)C3)c(=O)c1=O)c1ccnc2ccc(OC)cc12

>  <axial_configuration>  (1) 
none

>  <inchikey>  (1) 
PTVANMFLHLLLCC-MQGPSWITSA-N

>  <build_source>  (1) 
smiles

>  <rdkit_version>  (1) 
2025.09.6

>  <random_seed>  (1) 
42

>  <generated_at>  (1) 
2026-05-19T12:34:48

$$$$
