catalyst151
     RDKit          3D

  0  0  0  0  0  0  0  0  0  0999 V3000
M  V30 BEGIN CTAB
M  V30 COUNTS 82 87 0 0 0
M  V30 BEGIN ATOM
M  V30 1 C 0.556429 6.309704 1.650448 0
M  V30 2 C 0.388103 5.050351 1.226655 0
M  V30 3 C 0.587428 4.607477 -0.203859 0 CFG=1
M  V30 4 C 1.609192 3.443684 -0.319746 0
M  V30 5 N 1.023862 2.249768 -0.989311 0
M  V30 6 C 0.600568 2.644507 -2.353770 0
M  V30 7 C -0.403650 3.806601 -2.336188 0
M  V30 8 C -0.737393 4.169311 -0.878126 0 CFG=1
M  V30 9 C -1.286226 2.884923 -0.229403 0
M  V30 10 C -0.169073 1.816831 -0.176790 0 CFG=1
M  V30 11 C -0.678793 0.385913 -0.582213 0 CFG=1
M  V30 12 N 0.470261 -0.479635 -0.922679 0
M  V30 13 C 0.453771 -1.611734 -1.681136 0
M  V30 14 S -0.908099 -2.370432 -2.288939 0
M  V30 15 N 1.658563 -2.157121 -2.029234 0
M  V30 16 C 2.968593 -1.978756 -1.544023 0
M  V30 17 C 3.280716 -1.369685 -0.329554 0
M  V30 18 C 4.611806 -1.235843 0.101381 0
M  V30 19 C 4.914723 -0.586775 1.432009 0
M  V30 20 F 6.164941 -0.045425 1.481505 0
M  V30 21 F 4.850936 -1.467876 2.466777 0
M  V30 22 F 4.061665 0.428750 1.737823 0
M  V30 23 C 5.640467 -1.753772 -0.698947 0
M  V30 24 C 5.350757 -2.388954 -1.915389 0
M  V30 25 C 6.455173 -2.974090 -2.762291 0
M  V30 26 F 6.716491 -4.270780 -2.444063 0
M  V30 27 F 7.636013 -2.308795 -2.631226 0
M  V30 28 F 6.167916 -2.963731 -4.093461 0
M  V30 29 C 4.009257 -2.507234 -2.317201 0
M  V30 30 C -1.594928 -0.222805 0.478172 0
M  V30 31 C -2.959621 -0.326472 0.161802 0
M  V30 32 C -3.840576 -0.900024 1.069096 0
M  V30 33 C -5.314283 -1.029836 0.748904 0
M  V30 34 C -5.625752 -1.764388 -0.537367 0
M  V30 35 C -5.150677 -3.067233 -0.749897 0
M  V30 36 C -5.438560 -3.741942 -1.936835 0
M  V30 37 C -6.213282 -3.127882 -2.918544 0
M  V30 38 C -6.702463 -1.839210 -2.713909 0
M  V30 39 C -6.412744 -1.160467 -1.528815 0
M  V30 40 N -3.434993 -1.348786 2.277741 0
M  V30 41 C -2.137401 -1.255630 2.602059 0
M  V30 42 C -1.751558 -1.740989 3.844062 0
M  V30 43 C -0.425832 -1.693692 4.287254 0
M  V30 44 C 0.545702 -1.137366 3.471771 0
M  V30 45 O 1.875440 -1.015430 3.758489 0
M  V30 46 C 2.324934 -1.585351 4.981331 0
M  V30 47 C 0.170056 -0.636069 2.223967 0
M  V30 48 C -1.162769 -0.691605 1.749703 0
M  V30 49 H 0.403436 6.568573 2.694136 0
M  V30 50 H 0.847095 7.108907 0.975679 0
M  V30 51 H 0.099410 4.293614 1.954234 0
M  V30 52 H 0.988126 5.455613 -0.777572 0
M  V30 53 H 2.008215 3.150666 0.660153 0
M  V30 54 H 2.483117 3.779939 -0.893426 0
M  V30 55 H 0.171542 1.785612 -2.882640 0
M  V30 56 H 1.483291 2.927873 -2.940901 0
M  V30 57 H 0.016880 4.676093 -2.855360 0
M  V30 58 H -1.315443 3.519825 -2.873670 0
M  V30 59 H -1.485603 4.969176 -0.846353 0
M  V30 60 H -1.650985 3.090679 0.783545 0
M  V30 61 H -2.149721 2.534023 -0.807403 0
M  V30 62 H 0.177222 1.759731 0.862192 0
M  V30 63 H -1.241264 0.493904 -1.518955 0
M  V30 64 H 1.296290 0.089868 -1.084589 0
M  V30 65 H 1.551219 -2.859028 -2.755114 0
M  V30 66 H 2.497339 -1.028951 0.337064 0
M  V30 67 H 6.676905 -1.668100 -0.367668 0
M  V30 68 H 3.785236 -3.007831 -3.259137 0
M  V30 69 H -3.331840 0.010420 -0.802606 0
M  V30 70 H -5.825812 -1.551583 1.568088 0
M  V30 71 H -5.737249 -0.017507 0.721348 0
M  V30 72 H -4.541685 -3.560000 0.006546 0
M  V30 73 H -5.053099 -4.745728 -2.095103 0
M  V30 74 H -6.435047 -3.654644 -3.842697 0
M  V30 75 H -7.310053 -1.362644 -3.478588 0
M  V30 76 H -6.805760 -0.156507 -1.386709 0
M  V30 77 H -2.510653 -2.176442 4.490748 0
M  V30 78 H -0.198293 -2.095490 5.268307 0
M  V30 79 H 3.407210 -1.435680 5.041866 0
M  V30 80 H 1.869813 -1.081771 5.840456 0
M  V30 81 H 2.134994 -2.663466 5.008707 0
M  V30 82 H 0.950077 -0.191151 1.617389 0
M  V30 END ATOM
M  V30 BEGIN BOND
M  V30 1 2 1 2
M  V30 2 1 2 3
M  V30 3 1 3 4
M  V30 4 1 4 5
M  V30 5 1 5 6
M  V30 6 1 6 7
M  V30 7 1 7 8
M  V30 8 1 8 9
M  V30 9 1 9 10
M  V30 10 1 10 11
M  V30 11 1 11 12
M  V30 12 1 12 13
M  V30 13 2 13 14
M  V30 14 1 13 15
M  V30 15 1 15 16
M  V30 16 2 16 17
M  V30 17 1 17 18
M  V30 18 1 18 19
M  V30 19 1 19 20
M  V30 20 1 19 21
M  V30 21 1 19 22
M  V30 22 2 18 23
M  V30 23 1 23 24
M  V30 24 1 24 25
M  V30 25 1 25 26
M  V30 26 1 25 27
M  V30 27 1 25 28
M  V30 28 2 24 29
M  V30 29 1 11 30
M  V30 30 2 30 31
M  V30 31 1 31 32
M  V30 32 1 32 33
M  V30 33 1 33 34
M  V30 34 2 34 35
M  V30 35 1 35 36
M  V30 36 2 36 37
M  V30 37 1 37 38
M  V30 38 2 38 39
M  V30 39 2 32 40
M  V30 40 1 40 41
M  V30 41 2 41 42
M  V30 42 1 42 43
M  V30 43 2 43 44
M  V30 44 1 44 45
M  V30 45 1 45 46
M  V30 46 1 44 47
M  V30 47 2 47 48
M  V30 48 1 8 3
M  V30 49 1 29 16
M  V30 50 1 48 30
M  V30 51 1 10 5
M  V30 52 1 39 34
M  V30 53 1 48 41
M  V30 54 1 1 49
M  V30 55 1 1 50
M  V30 56 1 2 51
M  V30 57 1 3 52 CFG=3
M  V30 58 1 4 53
M  V30 59 1 4 54
M  V30 60 1 6 55
M  V30 61 1 6 56
M  V30 62 1 7 57
M  V30 63 1 7 58
M  V30 64 1 8 59 CFG=3
M  V30 65 1 9 60
M  V30 66 1 9 61
M  V30 67 1 10 62 CFG=1
M  V30 68 1 11 63 CFG=3
M  V30 69 1 12 64
M  V30 70 1 15 65
M  V30 71 1 17 66
M  V30 72 1 23 67
M  V30 73 1 29 68
M  V30 74 1 31 69
M  V30 75 1 33 70
M  V30 76 1 33 71
M  V30 77 1 35 72
M  V30 78 1 36 73
M  V30 79 1 37 74
M  V30 80 1 38 75
M  V30 81 1 39 76
M  V30 82 1 42 77
M  V30 83 1 43 78
M  V30 84 1 46 79
M  V30 85 1 46 80
M  V30 86 1 46 81
M  V30 87 1 47 82
M  V30 END BOND
M  V30 END CTAB
M  END
>  <catalyst_id>  (1) 
KDXNSDPTJZIWLD_QCRNIGCCSA_NONE

>  <source_smiles>  (1) 
C=C[C@H]1CN2CC[C@H]1C[C@H]2[C@@H](NC(=S)Nc1cc(C(F)(F)F)cc(C(F)(F)F)c1)c1cc(Cc2ccccc2)nc2ccc(OC)cc12

>  <axial_configuration>  (1) 
none

>  <inchikey>  (1) 
KDXNSDPTJZIWLD-QCRNIGCCSA-N

>  <build_source>  (1) 
smiles

>  <rdkit_version>  (1) 
2025.09.6

>  <random_seed>  (1) 
42

>  <generated_at>  (1) 
2026-05-19T12:33:05

$$$$
