catalyst8
     RDKit          3D

  0  0  0  0  0  0  0  0  0  0999 V3000
M  V30 BEGIN CTAB
M  V30 COUNTS 120 130 0 0 0
M  V30 BEGIN ATOM
M  V30 1 C 4.747319 -5.913457 -0.946809 0
M  V30 2 C 3.568007 -4.956889 -0.852395 0
M  V30 3 C 3.985072 -3.481441 -0.713704 0 CFG=2
M  V30 4 C 2.745076 -2.563605 -0.581770 0
M  V30 5 N 2.690974 -1.541208 -1.650034 0
M  V30 6 C 2.716778 -2.236210 -2.958849 0
M  V30 7 C 4.056539 -2.951754 -3.182408 0
M  V30 8 C 4.858377 -2.941892 -1.872572 0 CFG=1
M  V30 9 C 5.175626 -1.471878 -1.529297 0
M  V30 10 C 3.878916 -0.619710 -1.584457 0 CFG=2
M  V30 11 C 3.803990 0.470428 -0.446207 0 CFG=2
M  V30 12 O 2.743568 1.435427 -0.672756 0
M  V30 13 C 1.493069 0.983040 -0.359185 0
M  V30 14 C 1.168123 0.805355 0.988813 0
M  V30 15 C -0.102153 0.368134 1.343263 0
M  V30 16 C -1.050375 0.116040 0.352356 0
M  V30 17 O -2.302037 -0.266752 0.745375 0
M  V30 18 C -3.222816 0.803763 1.095359 0 CFG=1
M  V30 19 C -3.096552 1.221821 2.615285 0 CFG=1
M  V30 20 C -4.264852 2.148711 3.053829 0
M  V30 21 C -4.966070 1.555878 4.291201 0 CFG=2
M  V30 22 C -3.919010 1.470436 5.411419 0
M  V30 23 C -2.732125 0.621304 4.936886 0
M  V30 24 N -2.958160 0.079297 3.578012 0
M  V30 25 C -4.194332 -0.735060 3.613233 0
M  V30 26 C -5.441048 0.135039 3.897360 0 CFG=1
M  V30 27 C -6.369845 -0.488192 4.952428 0
M  V30 28 C -7.019051 -1.779218 4.470711 0
M  V30 29 C -3.250037 1.975587 0.093278 0
M  V30 30 C -2.381598 3.064938 0.272566 0
M  V30 31 C -2.399773 4.100122 -0.639242 0
M  V30 32 N -3.212708 4.136270 -1.707989 0
M  V30 33 C -4.046054 3.105746 -1.904864 0
M  V30 34 C -4.869270 3.161750 -3.019385 0
M  V30 35 C -5.769223 2.140616 -3.333832 0
M  V30 36 C -5.845856 1.022740 -2.518508 0
M  V30 37 O -6.665998 -0.054307 -2.703891 0
M  V30 38 C -7.467898 -0.060014 -3.877905 0
M  V30 39 C -5.022755 0.950069 -1.390162 0
M  V30 40 C -4.113223 1.983765 -1.045557 0
M  V30 41 C -0.708321 0.229043 -1.007499 0
M  V30 42 C -1.636915 -0.228797 -2.066835 0
M  V30 43 O -2.563979 -0.994618 -1.830727 0
M  V30 44 C -1.415102 0.208796 -3.453117 0
M  V30 45 C -2.403692 -0.019075 -4.420582 0
M  V30 46 C -2.198228 0.386155 -5.739506 0
M  V30 47 C -1.005376 1.012673 -6.095772 0
M  V30 48 C -0.018771 1.233920 -5.132804 0
M  V30 49 C -0.224855 0.831739 -3.805440 0
M  V30 50 C 0.824589 1.066452 -2.793922 0
M  V30 51 O 1.887037 1.553640 -3.166223 0
M  V30 52 C 0.539450 0.752020 -1.365902 0
M  V30 53 C 5.080102 1.313903 -0.379070 0
M  V30 54 C 5.322274 2.214801 -1.429796 0
M  V30 55 C 6.462783 2.986823 -1.402434 0
M  V30 56 N 7.377945 2.926212 -0.418206 0
M  V30 57 C 7.163992 2.073743 0.594711 0
M  V30 58 C 8.118611 2.030183 1.597818 0
M  V30 59 C 7.998413 1.175236 2.693661 0
M  V30 60 C 6.900686 0.333330 2.804215 0
M  V30 61 O 6.896744 -0.460499 3.916164 0
M  V30 62 C 5.806439 -1.359739 4.071716 0
M  V30 63 C 5.925052 0.363122 1.806260 0
M  V30 64 C 6.029248 1.229590 0.681579 0
M  V30 65 H 4.392618 -6.949010 -0.925957 0
M  V30 66 H 5.435245 -5.774481 -0.106956 0
M  V30 67 H 5.302872 -5.774345 -1.878710 0
M  V30 68 H 2.917399 -5.100827 -1.722285 0
M  V30 69 H 2.971816 -5.235188 0.026000 0
M  V30 70 H 4.565473 -3.395008 0.216030 0
M  V30 71 H 2.750212 -2.078720 0.401293 0
M  V30 72 H 1.815124 -3.146118 -0.601199 0
M  V30 73 H 2.535161 -1.519601 -3.769245 0
M  V30 74 H 1.888224 -2.953612 -3.014031 0
M  V30 75 H 3.884740 -3.975808 -3.530774 0
M  V30 76 H 4.626404 -2.440149 -3.967871 0
M  V30 77 H 5.790106 -3.506467 -1.975340 0
M  V30 78 H 5.643123 -1.438498 -0.539751 0
M  V30 79 H 5.903926 -1.073496 -2.246435 0
M  V30 80 H 3.887540 -0.061891 -2.531403 0
M  V30 81 H 3.635686 -0.018298 0.514312 0
M  V30 82 H 1.897972 1.021869 1.764278 0
M  V30 83 H -0.351792 0.218347 2.390618 0
M  V30 84 H -4.205276 0.326230 1.039147 0
M  V30 85 H -2.167296 1.794431 2.714592 0
M  V30 86 H -3.874290 3.145755 3.293118 0
M  V30 87 H -5.002716 2.278678 2.253632 0
M  V30 88 H -5.807380 2.190032 4.590465 0
M  V30 89 H -4.355835 1.037908 6.317906 0
M  V30 90 H -3.571282 2.476637 5.675048 0
M  V30 91 H -2.555591 -0.201484 5.641058 0
M  V30 92 H -1.811222 1.217694 4.952082 0
M  V30 93 H -4.321738 -1.271049 2.665347 0
M  V30 94 H -4.075243 -1.522930 4.368047 0
M  V30 95 H -6.017231 0.225845 2.965385 0
M  V30 96 H -7.164596 0.225122 5.201891 0
M  V30 97 H -5.822739 -0.692201 5.879634 0
M  V30 98 H -7.595155 -1.609865 3.555443 0
M  V30 99 H -6.273536 -2.554121 4.269396 0
M  V30 100 H -7.703217 -2.163197 5.234141 0
M  V30 101 H -1.676300 3.116921 1.094400 0
M  V30 102 H -1.735912 4.953716 -0.532611 0
M  V30 103 H -4.807870 4.032207 -3.669486 0
M  V30 104 H -6.383323 2.254840 -4.220019 0
M  V30 105 H -8.187456 0.765238 -3.867100 0
M  V30 106 H -6.848143 -0.032918 -4.780411 0
M  V30 107 H -8.034802 -0.995866 -3.891227 0
M  V30 108 H -5.081269 0.039101 -0.798925 0
M  V30 109 H -3.336219 -0.509352 -4.145525 0
M  V30 110 H -2.968081 0.211462 -6.487106 0
M  V30 111 H -0.841338 1.329698 -7.123030 0
M  V30 112 H 0.910136 1.723517 -5.419809 0
M  V30 113 H 4.618334 2.322550 -2.252363 0
M  V30 114 H 6.676383 3.698189 -2.194806 0
M  V30 115 H 8.986545 2.681883 1.525367 0
M  V30 116 H 8.769854 1.169866 3.459444 0
M  V30 117 H 5.769528 -2.081666 3.249069 0
M  V30 118 H 5.963800 -1.919197 4.998858 0
M  V30 119 H 4.859342 -0.818292 4.165942 0
M  V30 120 H 5.072544 -0.297421 1.892549 0
M  V30 END ATOM
M  V30 BEGIN BOND
M  V30 1 1 1 2
M  V30 2 1 2 3
M  V30 3 1 3 4
M  V30 4 1 4 5
M  V30 5 1 5 6
M  V30 6 1 6 7
M  V30 7 1 7 8
M  V30 8 1 8 9
M  V30 9 1 9 10
M  V30 10 1 10 11
M  V30 11 1 11 12
M  V30 12 1 12 13
M  V30 13 2 13 14
M  V30 14 1 14 15
M  V30 15 2 15 16
M  V30 16 1 16 17
M  V30 17 1 17 18
M  V30 18 1 18 19
M  V30 19 1 19 20
M  V30 20 1 20 21
M  V30 21 1 21 22
M  V30 22 1 22 23
M  V30 23 1 23 24
M  V30 24 1 24 25
M  V30 25 1 25 26
M  V30 26 1 26 27
M  V30 27 1 27 28
M  V30 28 1 18 29
M  V30 29 2 29 30
M  V30 30 1 30 31
M  V30 31 2 31 32
M  V30 32 1 32 33
M  V30 33 2 33 34
M  V30 34 1 34 35
M  V30 35 2 35 36
M  V30 36 1 36 37
M  V30 37 1 37 38
M  V30 38 1 36 39
M  V30 39 2 39 40
M  V30 40 1 16 41
M  V30 41 1 41 42
M  V30 42 2 42 43
M  V30 43 1 42 44
M  V30 44 2 44 45
M  V30 45 1 45 46
M  V30 46 2 46 47
M  V30 47 1 47 48
M  V30 48 2 48 49
M  V30 49 1 49 50
M  V30 50 2 50 51
M  V30 51 1 50 52
M  V30 52 1 11 53
M  V30 53 2 53 54
M  V30 54 1 54 55
M  V30 55 2 55 56
M  V30 56 1 56 57
M  V30 57 2 57 58
M  V30 58 1 58 59
M  V30 59 2 59 60
M  V30 60 1 60 61
M  V30 61 1 61 62
M  V30 62 1 60 63
M  V30 63 2 63 64
M  V30 64 1 8 3
M  V30 65 1 10 5
M  V30 66 1 52 13
M  V30 67 1 24 19
M  V30 68 1 26 21
M  V30 69 1 40 29
M  V30 70 1 40 33
M  V30 71 2 52 41
M  V30 72 1 49 44
M  V30 73 1 64 53
M  V30 74 1 64 57
M  V30 75 1 1 65
M  V30 76 1 1 66
M  V30 77 1 1 67
M  V30 78 1 2 68
M  V30 79 1 2 69
M  V30 80 1 3 70 CFG=1
M  V30 81 1 4 71
M  V30 82 1 4 72
M  V30 83 1 6 73
M  V30 84 1 6 74
M  V30 85 1 7 75
M  V30 86 1 7 76
M  V30 87 1 8 77 CFG=3
M  V30 88 1 9 78
M  V30 89 1 9 79
M  V30 90 1 10 80 CFG=3
M  V30 91 1 11 81 CFG=1
M  V30 92 1 14 82
M  V30 93 1 15 83
M  V30 94 1 18 84 CFG=1
M  V30 95 1 19 85 CFG=3
M  V30 96 1 20 86
M  V30 97 1 20 87
M  V30 98 1 21 88 CFG=1
M  V30 99 1 22 89
M  V30 100 1 22 90
M  V30 101 1 23 91
M  V30 102 1 23 92
M  V30 103 1 25 93
M  V30 104 1 25 94
M  V30 105 1 26 95 CFG=3
M  V30 106 1 27 96
M  V30 107 1 27 97
M  V30 108 1 28 98
M  V30 109 1 28 99
M  V30 110 1 28 100
M  V30 111 1 30 101
M  V30 112 1 31 102
M  V30 113 1 34 103
M  V30 114 1 35 104
M  V30 115 1 38 105
M  V30 116 1 38 106
M  V30 117 1 38 107
M  V30 118 1 39 108
M  V30 119 1 45 109
M  V30 120 1 46 110
M  V30 121 1 47 111
M  V30 122 1 48 112
M  V30 123 1 54 113
M  V30 124 1 55 114
M  V30 125 1 58 115
M  V30 126 1 59 116
M  V30 127 1 62 117
M  V30 128 1 62 118
M  V30 129 1 62 119
M  V30 130 1 63 120
M  V30 END BOND
M  V30 END CTAB
M  END
>  <catalyst_id>  (1) 
ARCFYUDCVYJQRN_KGHNJIHGSA_NONE

>  <source_smiles>  (1) 
CC[C@@H]1CN2CC[C@H]1C[C@@H]2[C@H](Oc3ccc(O[C@@H]([C@H]4C[C@@H]5CCN4C[C@H]5CC)c6ccnc7ccc(OC)cc67)c8C(=O)c9ccccc9C(=O)c38)c%10ccnc%11ccc(OC)cc%10%11

>  <axial_configuration>  (1) 
none

>  <inchikey>  (1) 
ARCFYUDCVYJQRN-KGHNJIHGSA-N

>  <build_source>  (1) 
smiles

>  <rdkit_version>  (1) 
2025.09.6

>  <random_seed>  (1) 
42

>  <generated_at>  (1) 
2026-05-19T12:32:30

$$$$
