catalyst68
     RDKit          3D

  0  0  0  0  0  0  0  0  0  0999 V3000
M  V30 BEGIN CTAB
M  V30 COUNTS 66 70 0 0 0
M  V30 BEGIN ATOM
M  V30 1 C -5.345415 -4.115791 -0.142603 0
M  V30 2 C -4.314163 -3.265385 -0.227919 0
M  V30 3 C -3.130116 -3.278509 0.710331 0 CFG=1
M  V30 4 C -1.784929 -3.438370 -0.047227 0
M  V30 5 N -0.837669 -2.327750 0.245576 0
M  V30 6 C -0.566718 -2.322595 1.703869 0
M  V30 7 C -1.851932 -2.176593 2.532410 0
M  V30 8 C -3.052482 -2.002831 1.584743 0 CFG=1
M  V30 9 C -2.745527 -0.763245 0.723938 0
M  V30 10 C -1.508347 -1.038964 -0.159958 0 CFG=1
M  V30 11 C -0.499738 0.170437 -0.210382 0 CFG=1
M  V30 12 N 0.791964 -0.324565 -0.741986 0
M  V30 13 C 2.041023 0.268171 -0.592297 0
M  V30 14 S 2.287431 1.779730 0.072427 0
M  V30 15 N 2.995567 -0.579869 -1.143624 0
M  V30 16 C 4.404583 -0.592788 -1.065286 0
M  V30 17 C 5.147947 0.023350 -0.059460 0
M  V30 18 C 6.546201 -0.064491 -0.047368 0
M  V30 19 C 7.229286 -0.779893 -1.039160 0
M  V30 20 C 8.733390 -0.891805 -1.012590 0
M  V30 21 F 9.157681 -1.982352 -0.316073 0
M  V30 22 F 9.281483 -1.007098 -2.254987 0
M  V30 23 F 9.343528 0.181038 -0.436284 0
M  V30 24 C 6.481137 -1.427979 -2.029570 0
M  V30 25 C 5.084907 -1.338025 -2.037438 0
M  V30 26 C -1.059817 1.306238 -1.064520 0
M  V30 27 C -1.057058 1.154662 -2.460634 0
M  V30 28 C -1.596755 2.150602 -3.246531 0
M  V30 29 N -2.145942 3.274038 -2.752398 0
M  V30 30 C -2.145984 3.444769 -1.422220 0
M  V30 31 C -2.705114 4.615533 -0.931646 0
M  V30 32 C -2.762058 4.900579 0.435486 0
M  V30 33 C -2.241528 3.993730 1.345111 0
M  V30 34 O -2.226075 4.132515 2.704740 0
M  V30 35 C -2.706711 5.364239 3.229450 0
M  V30 36 C -1.674384 2.807738 0.869441 0
M  V30 37 C -1.615269 2.497878 -0.513979 0
M  V30 38 H -5.397434 -4.880375 0.626452 0
M  V30 39 H -6.170317 -4.060272 -0.847009 0
M  V30 40 H -4.321707 -2.521475 -1.022486 0
M  V30 41 H -3.232057 -4.139650 1.386423 0
M  V30 42 H -1.315678 -4.389299 0.238282 0
M  V30 43 H -1.933924 -3.510003 -1.132492 0
M  V30 44 H 0.136409 -1.520681 1.957062 0
M  V30 45 H -0.051759 -3.251103 1.981150 0
M  V30 46 H -1.768434 -1.311245 3.200810 0
M  V30 47 H -1.994658 -3.060467 3.165487 0
M  V30 48 H -3.973386 -1.855943 2.160088 0
M  V30 49 H -3.604629 -0.508515 0.092961 0
M  V30 50 H -2.580650 0.090531 1.389380 0
M  V30 51 H -1.860561 -1.197871 -1.189596 0
M  V30 52 H -0.288558 0.497451 0.810320 0
M  V30 53 H 0.820874 -1.340021 -0.694869 0
M  V30 54 H 2.602939 -1.197115 -1.842742 0
M  V30 55 H 4.673283 0.555564 0.757418 0
M  V30 56 H 7.098232 0.429204 0.751790 0
M  V30 57 H 6.982436 -2.006080 -2.804651 0
M  V30 58 H 4.538703 -1.849508 -2.826556 0
M  V30 59 H -0.634568 0.272849 -2.931705 0
M  V30 60 H -1.605483 2.067814 -4.329350 0
M  V30 61 H -3.110743 5.335104 -1.639988 0
M  V30 62 H -3.215763 5.835832 0.743985 0
M  V30 63 H -2.121046 6.210195 2.854438 0
M  V30 64 H -2.588263 5.333082 4.316838 0
M  V30 65 H -3.772407 5.494025 3.014153 0
M  V30 66 H -1.263251 2.131624 1.613022 0
M  V30 END ATOM
M  V30 BEGIN BOND
M  V30 1 2 1 2
M  V30 2 1 2 3
M  V30 3 1 3 4
M  V30 4 1 4 5
M  V30 5 1 5 6
M  V30 6 1 6 7
M  V30 7 1 7 8
M  V30 8 1 8 9
M  V30 9 1 9 10
M  V30 10 1 10 11
M  V30 11 1 11 12
M  V30 12 1 12 13
M  V30 13 2 13 14
M  V30 14 1 13 15
M  V30 15 1 15 16
M  V30 16 2 16 17
M  V30 17 1 17 18
M  V30 18 2 18 19
M  V30 19 1 19 20
M  V30 20 1 20 21
M  V30 21 1 20 22
M  V30 22 1 20 23
M  V30 23 1 19 24
M  V30 24 2 24 25
M  V30 25 1 11 26
M  V30 26 2 26 27
M  V30 27 1 27 28
M  V30 28 2 28 29
M  V30 29 1 29 30
M  V30 30 2 30 31
M  V30 31 1 31 32
M  V30 32 2 32 33
M  V30 33 1 33 34
M  V30 34 1 34 35
M  V30 35 1 33 36
M  V30 36 2 36 37
M  V30 37 1 8 3
M  V30 38 1 25 16
M  V30 39 1 37 26
M  V30 40 1 10 5
M  V30 41 1 37 30
M  V30 42 1 1 38
M  V30 43 1 1 39
M  V30 44 1 2 40
M  V30 45 1 3 41 CFG=1
M  V30 46 1 4 42
M  V30 47 1 4 43
M  V30 48 1 6 44
M  V30 49 1 6 45
M  V30 50 1 7 46
M  V30 51 1 7 47
M  V30 52 1 8 48 CFG=1
M  V30 53 1 9 49
M  V30 54 1 9 50
M  V30 55 1 10 51 CFG=3
M  V30 56 1 11 52 CFG=1
M  V30 57 1 12 53
M  V30 58 1 15 54
M  V30 59 1 17 55
M  V30 60 1 18 56
M  V30 61 1 24 57
M  V30 62 1 25 58
M  V30 63 1 27 59
M  V30 64 1 28 60
M  V30 65 1 31 61
M  V30 66 1 32 62
M  V30 67 1 35 63
M  V30 68 1 35 64
M  V30 69 1 35 65
M  V30 70 1 36 66
M  V30 END BOND
M  V30 END CTAB
M  END
>  <catalyst_id>  (1) 
FXQYKTQSGRNNRG_JZWJADFXSA_NONE

>  <source_smiles>  (1) 
C=C[C@H]1CN2CC[C@H]1C[C@H]2[C@@H](NC(=S)Nc1ccc(C(F)(F)F)cc1)c1ccnc2ccc(OC)cc12

>  <axial_configuration>  (1) 
none

>  <inchikey>  (1) 
FXQYKTQSGRNNRG-JZWJADFXSA-N

>  <build_source>  (1) 
smiles

>  <rdkit_version>  (1) 
2025.09.6

>  <random_seed>  (1) 
42

>  <generated_at>  (1) 
2026-05-19T12:32:57

$$$$
