catalyst223
     RDKit          3D

  0  0  0  0  0  0  0  0  0  0999 V3000
M  V30 BEGIN CTAB
M  V30 COUNTS 48 49 0 0 0
M  V30 BEGIN ATOM
M  V30 1 C -3.378741 0.204770 2.479522 0
M  V30 2 N -3.517623 -0.852480 1.479882 0
M  V30 3 C -4.832724 -1.485004 1.592001 0
M  V30 4 C -3.211379 -0.432609 0.089887 0 CFG=1
M  V30 5 C -4.030936 0.759934 -0.440477 0
M  V30 6 C -3.715379 1.038170 -1.910299 0
M  V30 7 C -2.223605 1.248006 -2.144079 0
M  V30 8 C -1.392846 0.087579 -1.602382 0
M  V30 9 C -1.681490 -0.161843 -0.113198 0 CFG=2
M  V30 10 N -0.893148 -1.285929 0.410539 0
M  V30 11 C 0.448687 -1.430539 0.619785 0
M  V30 12 S 0.938558 -2.890325 1.266295 0
M  V30 13 N 1.210962 -0.334616 0.303890 0
M  V30 14 C 2.604429 -0.176420 0.144003 0
M  V30 15 C 3.488472 -1.216347 -0.144911 0
M  V30 16 C 4.863103 -0.975645 -0.321716 0
M  V30 17 C 5.801355 -2.123735 -0.612048 0
M  V30 18 F 6.209009 -2.759578 0.519263 0
M  V30 19 F 6.939971 -1.727942 -1.248541 0
M  V30 20 F 5.247891 -3.079383 -1.407911 0
M  V30 21 C 5.347887 0.335356 -0.201935 0
M  V30 22 C 4.475906 1.398920 0.068209 0
M  V30 23 C 4.989951 2.815434 0.155904 0
M  V30 24 F 6.273146 2.892245 0.603585 0
M  V30 25 F 4.254362 3.597262 0.994446 0
M  V30 26 F 4.973363 3.443424 -1.051259 0
M  V30 27 C 3.105213 1.130044 0.220427 0
M  V30 28 H -4.118376 1.002477 2.352888 0
M  V30 29 H -3.504165 -0.209480 3.486715 0
M  V30 30 H -2.379730 0.650203 2.459950 0
M  V30 31 H -5.654273 -0.782998 1.415261 0
M  V30 32 H -4.927516 -2.316208 0.884633 0
M  V30 33 H -4.964289 -1.914771 2.591605 0
M  V30 34 H -3.444170 -1.299626 -0.547034 0
M  V30 35 H -5.104978 0.565722 -0.348040 0
M  V30 36 H -3.814689 1.663335 0.142438 0
M  V30 37 H -4.267633 1.924433 -2.242912 0
M  V30 38 H -4.065001 0.197508 -2.522333 0
M  V30 39 H -1.906192 2.179451 -1.659201 0
M  V30 40 H -2.033453 1.366795 -3.216788 0
M  V30 41 H -1.608174 -0.820914 -2.179808 0
M  V30 42 H -0.332679 0.308063 -1.765319 0
M  V30 43 H -1.387442 0.729855 0.453195 0
M  V30 44 H -1.448946 -2.049551 0.789645 0
M  V30 45 H 0.692075 0.529992 0.343492 0
M  V30 46 H 3.131361 -2.233568 -0.280530 0
M  V30 47 H 6.414263 0.529977 -0.329680 0
M  V30 48 H 2.429609 1.960556 0.422948 0
M  V30 END ATOM
M  V30 BEGIN BOND
M  V30 1 1 1 2
M  V30 2 1 2 3
M  V30 3 1 2 4
M  V30 4 1 4 5
M  V30 5 1 5 6
M  V30 6 1 6 7
M  V30 7 1 7 8
M  V30 8 1 8 9
M  V30 9 1 9 10
M  V30 10 1 10 11
M  V30 11 2 11 12
M  V30 12 1 11 13
M  V30 13 1 13 14
M  V30 14 2 14 15
M  V30 15 1 15 16
M  V30 16 1 16 17
M  V30 17 1 17 18
M  V30 18 1 17 19
M  V30 19 1 17 20
M  V30 20 2 16 21
M  V30 21 1 21 22
M  V30 22 1 22 23
M  V30 23 1 23 24
M  V30 24 1 23 25
M  V30 25 1 23 26
M  V30 26 2 22 27
M  V30 27 1 9 4
M  V30 28 1 27 14
M  V30 29 1 1 28
M  V30 30 1 1 29
M  V30 31 1 1 30
M  V30 32 1 3 31
M  V30 33 1 3 32
M  V30 34 1 3 33
M  V30 35 1 4 34 CFG=3
M  V30 36 1 5 35
M  V30 37 1 5 36
M  V30 38 1 6 37
M  V30 39 1 6 38
M  V30 40 1 7 39
M  V30 41 1 7 40
M  V30 42 1 8 41
M  V30 43 1 8 42
M  V30 44 1 9 43 CFG=1
M  V30 45 1 10 44
M  V30 46 1 13 45
M  V30 47 1 15 46
M  V30 48 1 21 47
M  V30 49 1 27 48
M  V30 END BOND
M  V30 END CTAB
M  END
>  <catalyst_id>  (1) 
NQRCAVZHOLYEBJ_KBPBESRZSA_NONE

>  <source_smiles>  (1) 
CN(C)[C@H]1CCCC[C@@H]1NC(=S)Nc1cc(C(F)(F)F)cc(C(F)(F)F)c1

>  <axial_configuration>  (1) 
none

>  <inchikey>  (1) 
NQRCAVZHOLYEBJ-KBPBESRZSA-N

>  <build_source>  (1) 
smiles

>  <rdkit_version>  (1) 
2025.09.6

>  <random_seed>  (1) 
42

>  <generated_at>  (1) 
2026-05-19T12:31:39

$$$$
