catalyst156
     RDKit          3D

  0  0  0  0  0  0  0  0  0  0999 V3000
M  V30 BEGIN CTAB
M  V30 COUNTS 44 47 0 0 0
M  V30 BEGIN ATOM
M  V30 1 C -4.073154 -2.483706 1.644310 0
M  V30 2 C -3.017556 -1.776090 1.221244 0
M  V30 3 C -3.048238 -0.288230 0.959444 0 CFG=1
M  V30 4 C -1.976963 0.470001 1.786475 0
M  V30 5 N -1.133790 1.352070 0.936586 0
M  V30 6 C -2.024742 2.299426 0.229649 0
M  V30 7 C -3.025792 1.577691 -0.684634 0
M  V30 8 C -2.846283 0.055898 -0.536601 0 CFG=1
M  V30 9 C -1.402972 -0.253188 -0.974779 0
M  V30 10 C -0.403374 0.481584 -0.046483 0 CFG=1
M  V30 11 C 0.728593 1.243277 -0.814539 0 CFG=2
M  V30 12 O 0.209206 2.017560 -1.904694 0
M  V30 13 C 1.810105 0.297262 -1.323262 0
M  V30 14 C 1.735560 -0.193158 -2.634392 0
M  V30 15 C 2.716430 -1.052203 -3.084595 0
M  V30 16 N 3.754708 -1.460458 -2.332047 0
M  V30 17 C 3.834908 -1.015958 -1.068492 0
M  V30 18 C 4.902429 -1.454657 -0.297102 0
M  V30 19 C 5.068807 -1.058563 1.030365 0
M  V30 20 C 4.144991 -0.202630 1.609031 0
M  V30 21 C 3.063904 0.255206 0.855562 0
M  V30 22 C 2.885937 -0.133956 -0.496290 0
M  V30 23 H -5.038836 -2.021316 1.823772 0
M  V30 24 H -3.990816 -3.552474 1.818427 0
M  V30 25 H -2.075074 -2.296345 1.060484 0
M  V30 26 H -4.033509 0.097560 1.258753 0
M  V30 27 H -2.474037 1.081466 2.551361 0
M  V30 28 H -1.331931 -0.217112 2.349677 0
M  V30 29 H -2.571579 2.899464 0.968815 0
M  V30 30 H -1.441689 3.030367 -0.340173 0
M  V30 31 H -4.050207 1.865835 -0.420508 0
M  V30 32 H -2.865008 1.876854 -1.727313 0
M  V30 33 H -3.564527 -0.476175 -1.170421 0
M  V30 34 H -1.214742 -1.332391 -0.936779 0
M  V30 35 H -1.282138 0.040792 -2.023150 0
M  V30 36 H 0.103167 -0.282866 0.559874 0
M  V30 37 H 1.190070 1.975915 -0.142598 0
M  V30 38 H 0.961491 2.524356 -2.256698 0
M  V30 39 H 0.923806 0.085907 -3.299566 0
M  V30 40 H 2.692499 -1.449288 -4.095413 0
M  V30 41 H 5.627647 -2.130523 -0.745197 0
M  V30 42 H 5.916125 -1.423793 1.604326 0
M  V30 43 H 4.260085 0.109066 2.644120 0
M  V30 44 H 2.356491 0.917521 1.349319 0
M  V30 END ATOM
M  V30 BEGIN BOND
M  V30 1 2 1 2
M  V30 2 1 2 3
M  V30 3 1 3 4
M  V30 4 1 4 5
M  V30 5 1 5 6
M  V30 6 1 6 7
M  V30 7 1 7 8
M  V30 8 1 8 9
M  V30 9 1 9 10
M  V30 10 1 10 11
M  V30 11 1 11 12
M  V30 12 1 11 13
M  V30 13 2 13 14
M  V30 14 1 14 15
M  V30 15 2 15 16
M  V30 16 1 16 17
M  V30 17 2 17 18
M  V30 18 1 18 19
M  V30 19 2 19 20
M  V30 20 1 20 21
M  V30 21 2 21 22
M  V30 22 1 8 3
M  V30 23 1 22 13
M  V30 24 1 10 5
M  V30 25 1 22 17
M  V30 26 1 1 23
M  V30 27 1 1 24
M  V30 28 1 2 25
M  V30 29 1 3 26 CFG=1
M  V30 30 1 4 27
M  V30 31 1 4 28
M  V30 32 1 6 29
M  V30 33 1 6 30
M  V30 34 1 7 31
M  V30 35 1 7 32
M  V30 36 1 8 33 CFG=3
M  V30 37 1 9 34
M  V30 38 1 9 35
M  V30 39 1 10 36 CFG=1
M  V30 40 1 11 37 CFG=1
M  V30 41 1 12 38
M  V30 42 1 14 39
M  V30 43 1 15 40
M  V30 44 1 18 41
M  V30 45 1 19 42
M  V30 46 1 20 43
M  V30 47 1 21 44
M  V30 END BOND
M  V30 END CTAB
M  END
>  <catalyst_id>  (1) 
KMPWYEUPVWOPIM_KODHJQJWSA_NONE

>  <source_smiles>  (1) 
C=C[C@H]1CN2CC[C@H]1C[C@H]2[C@H](O)c1ccnc2ccccc12

>  <axial_configuration>  (1) 
none

>  <inchikey>  (1) 
KMPWYEUPVWOPIM-KODHJQJWSA-N

>  <build_source>  (1) 
smiles

>  <rdkit_version>  (1) 
2025.09.6

>  <random_seed>  (1) 
42

>  <generated_at>  (1) 
2026-05-19T12:30:05

$$$$
