catalyst27
     RDKit          3D

  0  0  0  0  0  0  0  0  0  0999 V3000
M  V30 BEGIN CTAB
M  V30 COUNTS 73 78 0 0 0
M  V30 BEGIN ATOM
M  V30 1 C -3.741417 4.058219 2.712367 0
M  V30 2 C -3.141376 3.187580 1.890263 0
M  V30 3 C -2.059167 3.564456 0.905995 0 CFG=1
M  V30 4 C -0.769302 2.725598 1.107007 0
M  V30 5 N -0.353668 2.028850 -0.139192 0
M  V30 6 C -0.113373 3.046280 -1.186933 0
M  V30 7 C -1.359448 3.904004 -1.454433 0
M  V30 8 C -2.517682 3.414759 -0.565763 0 CFG=1
M  V30 9 C -2.739458 1.933131 -0.920947 0
M  V30 10 C -1.477326 1.115296 -0.551329 0 CFG=1
M  V30 11 C -1.076482 0.099694 -1.691047 0 CFG=1
M  V30 12 N 0.305053 -0.362309 -1.495598 0
M  V30 13 C 1.059029 -0.933707 -2.411974 0
M  V30 14 C 2.348426 -1.399520 -2.529681 0
M  V30 15 N 3.467225 -1.522461 -1.846382 0
M  V30 16 C 3.887301 -0.857154 -0.672798 0
M  V30 17 C 3.382273 0.385503 -0.275422 0
M  V30 18 C 3.793273 0.992117 0.920597 0
M  V30 19 C 3.220649 2.315017 1.335463 0
M  V30 20 C 4.701889 0.325000 1.748829 0
M  V30 21 C 5.208583 -0.926766 1.386294 0
M  V30 22 C 6.207727 -1.624963 2.260405 0
M  V30 23 C 4.804486 -1.500647 0.172512 0
M  V30 24 C 2.091704 -1.909561 -3.897128 0
M  V30 25 O 2.674312 -2.521444 -4.758153 0
M  V30 26 C 0.744339 -1.304759 -3.816740 0
M  V30 27 O -0.143453 -1.173107 -4.624125 0
M  V30 28 C -2.047715 -1.075643 -1.787111 0
M  V30 29 C -2.868419 -1.130553 -2.924493 0
M  V30 30 C -3.781842 -2.156037 -3.047234 0
M  V30 31 N -3.948956 -3.118674 -2.123557 0
M  V30 32 C -3.165553 -3.093915 -1.035981 0
M  V30 33 C -3.344114 -4.105002 -0.103180 0
M  V30 34 C -2.582903 -4.185897 1.066110 0
M  V30 35 C -1.608127 -3.232770 1.313925 0
M  V30 36 O -0.788953 -3.181205 2.406313 0
M  V30 37 C -0.904034 -4.240869 3.347681 0
M  V30 38 C -1.415428 -2.206258 0.384845 0
M  V30 39 C -2.184857 -2.100745 -0.803369 0
M  V30 40 H -3.485533 5.113227 2.717770 0
M  V30 41 H -4.511811 3.727995 3.403130 0
M  V30 42 H -3.441185 2.141897 1.935351 0
M  V30 43 H -1.795338 4.619794 1.066411 0
M  V30 44 H -0.880523 1.989933 1.914196 0
M  V30 45 H 0.045403 3.385036 1.434266 0
M  V30 46 H 0.220299 2.567731 -2.114887 0
M  V30 47 H 0.720907 3.691598 -0.884164 0
M  V30 48 H -1.639599 3.835405 -2.512428 0
M  V30 49 H -1.142246 4.958348 -1.245777 0
M  V30 50 H -3.422903 3.999576 -0.763797 0
M  V30 51 H -2.968537 1.855560 -1.990652 0
M  V30 52 H -3.609517 1.534587 -0.386600 0
M  V30 53 H -1.724436 0.524073 0.339037 0
M  V30 54 H -1.090316 0.658061 -2.637241 0
M  V30 55 H 0.705163 0.011670 -0.630713 0
M  V30 56 H 4.209255 -2.122466 -2.208997 0
M  V30 57 H 2.688612 0.919978 -0.918064 0
M  V30 58 H 3.962368 2.904526 1.884538 0
M  V30 59 H 2.919558 2.904873 0.463594 0
M  V30 60 H 2.347289 2.158810 1.975734 0
M  V30 61 H 5.014741 0.783880 2.684777 0
M  V30 62 H 6.107742 -2.712233 2.176465 0
M  V30 63 H 7.223171 -1.338935 1.969623 0
M  V30 64 H 6.055103 -1.366112 3.313469 0
M  V30 65 H 5.196759 -2.476426 -0.105885 0
M  V30 66 H -2.788822 -0.395023 -3.719804 0
M  V30 67 H -4.423721 -2.232978 -3.920130 0
M  V30 68 H -4.103523 -4.860718 -0.293928 0
M  V30 69 H -2.780509 -5.004372 1.749275 0
M  V30 70 H -0.676403 -5.207239 2.885596 0
M  V30 71 H -0.167006 -4.067648 4.137740 0
M  V30 72 H -1.895315 -4.248267 3.812714 0
M  V30 73 H -0.632344 -1.485680 0.603931 0
M  V30 END ATOM
M  V30 BEGIN BOND
M  V30 1 2 1 2
M  V30 2 1 2 3
M  V30 3 1 3 4
M  V30 4 1 4 5
M  V30 5 1 5 6
M  V30 6 1 6 7
M  V30 7 1 7 8
M  V30 8 1 8 9
M  V30 9 1 9 10
M  V30 10 1 10 11
M  V30 11 1 11 12
M  V30 12 1 12 13
M  V30 13 2 13 14
M  V30 14 1 14 15
M  V30 15 1 15 16
M  V30 16 2 16 17
M  V30 17 1 17 18
M  V30 18 1 18 19
M  V30 19 2 18 20
M  V30 20 1 20 21
M  V30 21 1 21 22
M  V30 22 2 21 23
M  V30 23 1 14 24
M  V30 24 2 24 25
M  V30 25 1 24 26
M  V30 26 2 26 27
M  V30 27 1 11 28
M  V30 28 2 28 29
M  V30 29 1 29 30
M  V30 30 2 30 31
M  V30 31 1 31 32
M  V30 32 2 32 33
M  V30 33 1 33 34
M  V30 34 2 34 35
M  V30 35 1 35 36
M  V30 36 1 36 37
M  V30 37 1 35 38
M  V30 38 2 38 39
M  V30 39 1 8 3
M  V30 40 1 26 13
M  V30 41 1 39 28
M  V30 42 1 10 5
M  V30 43 1 23 16
M  V30 44 1 39 32
M  V30 45 1 1 40
M  V30 46 1 1 41
M  V30 47 1 2 42
M  V30 48 1 3 43 CFG=1
M  V30 49 1 4 44
M  V30 50 1 4 45
M  V30 51 1 6 46
M  V30 52 1 6 47
M  V30 53 1 7 48
M  V30 54 1 7 49
M  V30 55 1 8 50 CFG=1
M  V30 56 1 9 51
M  V30 57 1 9 52
M  V30 58 1 10 53 CFG=1
M  V30 59 1 11 54 CFG=3
M  V30 60 1 12 55
M  V30 61 1 15 56
M  V30 62 1 17 57
M  V30 63 1 19 58
M  V30 64 1 19 59
M  V30 65 1 19 60
M  V30 66 1 20 61
M  V30 67 1 22 62
M  V30 68 1 22 63
M  V30 69 1 22 64
M  V30 70 1 23 65
M  V30 71 1 29 66
M  V30 72 1 30 67
M  V30 73 1 33 68
M  V30 74 1 34 69
M  V30 75 1 37 70
M  V30 76 1 37 71
M  V30 77 1 37 72
M  V30 78 1 38 73
M  V30 END BOND
M  V30 END CTAB
M  END
>  <catalyst_id>  (1) 
CLBIHRWQJHYCQG_QFLSHGSDSA_NONE

>  <source_smiles>  (1) 
C=C[C@H]1CN2CC[C@H]1C[C@H]2[C@@H](Nc1c(Nc2cc(C)cc(C)c2)c(=O)c1=O)c1ccnc2ccc(OC)cc12

>  <axial_configuration>  (1) 
none

>  <inchikey>  (1) 
CLBIHRWQJHYCQG-QFLSHGSDSA-N

>  <build_source>  (1) 
smiles

>  <rdkit_version>  (1) 
2025.09.6

>  <random_seed>  (1) 
42

>  <generated_at>  (1) 
2026-05-19T12:36:47

$$$$
