catalyst150
     RDKit          3D

  0  0  0  0  0  0  0  0  0  0999 V3000
M  V30 BEGIN CTAB
M  V30 COUNTS 85 89 0 0 0
M  V30 BEGIN ATOM
M  V30 1 C -5.160832 2.320245 -0.496270 0
M  V30 2 N -4.227244 1.773242 0.490806 0
M  V30 3 C -4.936608 1.471384 1.735108 0
M  V30 4 C -3.034071 2.644102 0.668357 0 CFG=1
M  V30 5 C -3.266255 3.972569 1.411835 0
M  V30 6 C -1.990634 4.816121 1.441315 0
M  V30 7 C -0.809729 4.048758 2.027378 0
M  V30 8 C -0.588623 2.714301 1.319715 0
M  V30 9 C -1.860011 1.854470 1.337887 0 CFG=2
M  V30 10 N -1.665071 0.575492 0.628773 0
M  V30 11 C -1.079560 -0.556061 1.107662 0
M  V30 12 S -0.305980 -0.739046 2.571543 0
M  V30 13 N -1.091501 -1.632622 0.277852 0
M  V30 14 C -1.701018 -1.763874 -1.039956 0 CFG=2
M  V30 15 C -3.067997 -2.385260 -1.000827 0
M  V30 16 C -4.114159 -2.134326 -0.125342 0
M  V30 17 C -5.322818 -2.806230 -0.319089 0
M  V30 18 C -5.477571 -3.705959 -1.383977 0
M  V30 19 C -4.425870 -3.946753 -2.269451 0
M  V30 20 C -3.227088 -3.284363 -2.062032 0
M  V30 21 C -1.984657 -3.365326 -2.891201 0
M  V30 22 C -0.925351 -2.767023 -1.942144 0 CFG=1
M  V30 23 O 0.081127 -2.042228 -2.668412 0
M  V30 24 C 1.217007 -2.796146 -2.829610 0
M  V30 25 C 1.257279 -3.755613 -3.842738 0
M  V30 26 C 2.414726 -4.507092 -4.038642 0
M  V30 27 C 3.539651 -4.300015 -3.227315 0
M  V30 28 C 4.802281 -5.101010 -3.437943 0
M  V30 29 F 5.434978 -5.417581 -2.274773 0
M  V30 30 F 5.715956 -4.443749 -4.202174 0
M  V30 31 F 4.576694 -6.289403 -4.068054 0
M  V30 32 C 3.494842 -3.302820 -2.235047 0
M  V30 33 C 2.345332 -2.530755 -2.038036 0
M  V30 34 N 2.257528 -1.510549 -1.061026 0
M  V30 35 C 3.325105 -0.862535 -0.461216 0
M  V30 36 O 4.500018 -1.032801 -0.763011 0
M  V30 37 N 2.884260 0.007954 0.522711 0
M  V30 38 C 3.667977 0.960267 1.209661 0
M  V30 39 C 4.923434 1.387829 0.770999 0
M  V30 40 C 5.648071 2.362709 1.479408 0
M  V30 41 C 7.015438 2.786063 0.997192 0
M  V30 42 F 7.995112 1.929162 1.393160 0
M  V30 43 F 7.104419 2.866942 -0.358741 0
M  V30 44 F 7.384152 4.013270 1.463440 0
M  V30 45 C 5.094937 2.909446 2.647526 0
M  V30 46 C 3.829038 2.508047 3.095676 0
M  V30 47 C 3.220046 3.089341 4.348389 0
M  V30 48 F 1.898322 3.385846 4.199666 0
M  V30 49 F 3.298869 2.239919 5.407859 0
M  V30 50 F 3.815353 4.246970 4.749374 0
M  V30 51 C 3.132232 1.527473 2.370162 0
M  V30 52 H -5.963191 1.601935 -0.699828 0
M  V30 53 H -5.620314 3.258080 -0.167108 0
M  V30 54 H -4.656097 2.497095 -1.452403 0
M  V30 55 H -4.273303 1.016976 2.477010 0
M  V30 56 H -5.727755 0.736076 1.547223 0
M  V30 57 H -5.403459 2.356820 2.179534 0
M  V30 58 H -2.684966 2.891608 -0.345864 0
M  V30 59 H -3.586038 3.784834 2.443866 0
M  V30 60 H -4.058455 4.554611 0.928584 0
M  V30 61 H -1.744723 5.137528 0.421617 0
M  V30 62 H -2.165248 5.725499 2.027468 0
M  V30 63 H -0.986219 3.868569 3.095024 0
M  V30 64 H 0.097989 4.658447 1.953900 0
M  V30 65 H -0.273334 2.893716 0.283639 0
M  V30 66 H 0.239423 2.191488 1.803464 0
M  V30 67 H -2.119078 1.625848 2.378546 0
M  V30 68 H -2.453302 0.398982 0.014166 0
M  V30 69 H -0.768576 -2.488092 0.717295 0
M  V30 70 H -1.750389 -0.784066 -1.528732 0
M  V30 71 H -4.007751 -1.431144 0.695007 0
M  V30 72 H -6.154387 -2.626110 0.358242 0
M  V30 73 H -6.428090 -4.216143 -1.522141 0
M  V30 74 H -4.552098 -4.636824 -3.098025 0
M  V30 75 H -1.737802 -4.399837 -3.148804 0
M  V30 76 H -2.088994 -2.778464 -3.809987 0
M  V30 77 H -0.490212 -3.564296 -1.317800 0
M  V30 78 H 0.400968 -3.910597 -4.492270 0
M  V30 79 H 2.440074 -5.254121 -4.831123 0
M  V30 80 H 4.379024 -3.152733 -1.618099 0
M  V30 81 H 1.367777 -1.027793 -1.022626 0
M  V30 82 H 1.978152 -0.209112 0.920435 0
M  V30 83 H 5.363400 0.984306 -0.139210 0
M  V30 84 H 5.655005 3.659323 3.208811 0
M  V30 85 H 2.160430 1.204813 2.737258 0
M  V30 END ATOM
M  V30 BEGIN BOND
M  V30 1 1 1 2
M  V30 2 1 2 3
M  V30 3 1 2 4
M  V30 4 1 4 5
M  V30 5 1 5 6
M  V30 6 1 6 7
M  V30 7 1 7 8
M  V30 8 1 8 9
M  V30 9 1 9 10
M  V30 10 1 10 11
M  V30 11 2 11 12
M  V30 12 1 11 13
M  V30 13 1 13 14
M  V30 14 1 14 15
M  V30 15 2 15 16
M  V30 16 1 16 17
M  V30 17 2 17 18
M  V30 18 1 18 19
M  V30 19 2 19 20
M  V30 20 1 20 21
M  V30 21 1 21 22
M  V30 22 1 22 23
M  V30 23 1 23 24
M  V30 24 2 24 25
M  V30 25 1 25 26
M  V30 26 2 26 27
M  V30 27 1 27 28
M  V30 28 1 28 29
M  V30 29 1 28 30
M  V30 30 1 28 31
M  V30 31 1 27 32
M  V30 32 2 32 33
M  V30 33 1 33 34
M  V30 34 1 34 35
M  V30 35 2 35 36
M  V30 36 1 35 37
M  V30 37 1 37 38
M  V30 38 2 38 39
M  V30 39 1 39 40
M  V30 40 1 40 41
M  V30 41 1 41 42
M  V30 42 1 41 43
M  V30 43 1 41 44
M  V30 44 2 40 45
M  V30 45 1 45 46
M  V30 46 1 46 47
M  V30 47 1 47 48
M  V30 48 1 47 49
M  V30 49 1 47 50
M  V30 50 2 46 51
M  V30 51 1 9 4
M  V30 52 1 22 14
M  V30 53 1 33 24
M  V30 54 1 51 38
M  V30 55 1 20 15
M  V30 56 1 1 52
M  V30 57 1 1 53
M  V30 58 1 1 54
M  V30 59 1 3 55
M  V30 60 1 3 56
M  V30 61 1 3 57
M  V30 62 1 4 58 CFG=3
M  V30 63 1 5 59
M  V30 64 1 5 60
M  V30 65 1 6 61
M  V30 66 1 6 62
M  V30 67 1 7 63
M  V30 68 1 7 64
M  V30 69 1 8 65
M  V30 70 1 8 66
M  V30 71 1 9 67 CFG=1
M  V30 72 1 10 68
M  V30 73 1 13 69
M  V30 74 1 14 70 CFG=3
M  V30 75 1 16 71
M  V30 76 1 17 72
M  V30 77 1 18 73
M  V30 78 1 19 74
M  V30 79 1 21 75
M  V30 80 1 21 76
M  V30 81 1 22 77 CFG=1
M  V30 82 1 25 78
M  V30 83 1 26 79
M  V30 84 1 32 80
M  V30 85 1 34 81
M  V30 86 1 37 82
M  V30 87 1 39 83
M  V30 88 1 45 84
M  V30 89 1 51 85
M  V30 END BOND
M  V30 END CTAB
M  END
>  <catalyst_id>  (1) 
KDFNIRAUTDSBCF_QNEBNACWSA_NONE

>  <source_smiles>  (1) 
CN(C)[C@H]1CCCC[C@@H]1NC(=S)N[C@@H]1c2ccccc2C[C@H]1Oc1ccc(C(F)(F)F)cc1NC(=O)Nc1cc(C(F)(F)F)cc(C(F)(F)F)c1

>  <axial_configuration>  (1) 
none

>  <inchikey>  (1) 
KDFNIRAUTDSBCF-QNEBNACWSA-N

>  <build_source>  (1) 
smiles

>  <rdkit_version>  (1) 
2025.09.6

>  <random_seed>  (1) 
42

>  <generated_at>  (1) 
2026-05-19T12:32:54

$$$$
