catalyst110
     RDKit          3D

  0  0  0  0  0  0  0  0  0  0999 V3000
M  V30 BEGIN CTAB
M  V30 COUNTS 78 80 0 0 0
M  V30 BEGIN ATOM
M  V30 1 C -0.100646 -1.730330 -2.393010 0
M  V30 2 C 0.341072 -0.960331 -1.146377 0 CFG=1
M  V30 3 O -0.470483 0.217664 -1.008640 0
M  V30 4 Si 0.141471 1.738552 -1.375570 0 VAL=4
M  V30 5 C 0.479008 1.944509 -3.204139 0
M  V30 6 C 1.673963 2.140778 -0.372843 0
M  V30 7 C -1.318702 3.118868 -0.845728 0
M  V30 8 C -2.620901 2.765632 -1.593654 0
M  V30 9 C -1.549020 3.029411 0.676756 0
M  V30 10 C -0.852673 4.535855 -1.229828 0
M  V30 11 C 0.214132 -1.789224 0.158209 0 CFG=2
M  V30 12 N 1.234338 -2.842713 0.260297 0
M  V30 13 C 2.587380 -2.720118 0.402330 0
M  V30 14 S 3.498580 -4.095087 0.154708 0
M  V30 15 N 3.015866 -1.467187 0.767681 0
M  V30 16 C 4.291636 -0.869552 0.684521 0
M  V30 17 C 4.538654 0.225377 1.521915 0
M  V30 18 C 5.764810 0.910043 1.485577 0
M  V30 19 C 6.019344 2.063730 2.425589 0
M  V30 20 F 6.927755 2.955669 1.943674 0
M  V30 21 F 4.894345 2.785022 2.690815 0
M  V30 22 F 6.495190 1.652840 3.631548 0
M  V30 23 C 6.753189 0.481143 0.588641 0
M  V30 24 C 6.512745 -0.590590 -0.284566 0
M  V30 25 C 7.573118 -1.047768 -1.259154 0
M  V30 26 F 8.459713 -0.062643 -1.576521 0
M  V30 27 F 8.316589 -2.077268 -0.772699 0
M  V30 28 F 7.057979 -1.475821 -2.444435 0
M  V30 29 C 5.275010 -1.255630 -0.227059 0
M  V30 30 C -1.179579 -2.439535 0.290489 0
M  V30 31 O -1.336037 -3.659538 0.315979 0
M  V30 32 N -2.217217 -1.539730 0.386397 0
M  V30 33 C -3.582259 -1.968152 0.312764 0 CFG=1
M  V30 34 C -4.046096 -2.814318 1.515721 0
M  V30 35 C -5.391994 -2.266840 2.020372 0
M  V30 36 C -5.133849 -0.856135 2.564166 0
M  V30 37 C -4.451492 -0.015120 1.474635 0
M  V30 38 N -4.375779 -0.731296 0.176734 0
M  V30 39 C -5.754569 -1.134438 -0.193788 0
M  V30 40 C -6.340997 -2.137042 0.817254 0
M  V30 41 H 0.437088 -2.678064 -2.490393 0
M  V30 42 H -1.177205 -1.929736 -2.385967 0
M  V30 43 H 0.091720 -1.137404 -3.293517 0
M  V30 44 H 1.394872 -0.686287 -1.284004 0
M  V30 45 H -0.422991 1.751766 -3.791983 0
M  V30 46 H 1.253542 1.245164 -3.532991 0
M  V30 47 H 0.824349 2.957855 -3.427994 0
M  V30 48 H 2.510914 1.509199 -0.683567 0
M  V30 49 H 1.497582 1.972490 0.693415 0
M  V30 50 H 1.971151 3.183889 -0.512575 0
M  V30 51 H -2.964853 1.754691 -1.347434 0
M  V30 52 H -2.487938 2.816619 -2.680039 0
M  V30 53 H -3.423298 3.462512 -1.326099 0
M  V30 54 H -0.644729 3.291676 1.237095 0
M  V30 55 H -1.846153 2.019414 0.979461 0
M  V30 56 H -2.342239 3.717345 0.990705 0
M  V30 57 H -0.683402 4.626730 -2.308327 0
M  V30 58 H 0.079415 4.806301 -0.721801 0
M  V30 59 H -1.607608 5.280114 -0.951618 0
M  V30 60 H 0.330881 -1.129067 1.026382 0
M  V30 61 H 0.906723 -3.782203 0.036732 0
M  V30 62 H 2.365456 -0.989930 1.377175 0
M  V30 63 H 3.777507 0.554122 2.228993 0
M  V30 64 H 7.716194 0.994372 0.559910 0
M  V30 65 H 5.094759 -2.059160 -0.936970 0
M  V30 66 H -2.054316 -0.617472 -0.007438 0
M  V30 67 H -3.665485 -2.563740 -0.606647 0
M  V30 68 H -3.311132 -2.803110 2.330144 0
M  V30 69 H -4.167747 -3.858463 1.202628 0
M  V30 70 H -5.817417 -2.915843 2.792134 0
M  V30 71 H -6.079499 -0.389563 2.864926 0
M  V30 72 H -4.495145 -0.902557 3.454034 0
M  V30 73 H -3.449585 0.281614 1.807245 0
M  V30 74 H -4.996368 0.927933 1.339770 0
M  V30 75 H -6.395582 -0.246042 -0.259731 0
M  V30 76 H -5.758766 -1.572563 -1.199722 0
M  V30 77 H -7.328798 -1.795528 1.148042 0
M  V30 78 H -6.475492 -3.115757 0.341267 0
M  V30 END ATOM
M  V30 BEGIN BOND
M  V30 1 1 1 2
M  V30 2 1 2 3
M  V30 3 1 3 4
M  V30 4 1 4 5
M  V30 5 1 4 6
M  V30 6 1 4 7
M  V30 7 1 7 8
M  V30 8 1 7 9
M  V30 9 1 7 10
M  V30 10 1 2 11
M  V30 11 1 11 12
M  V30 12 1 12 13
M  V30 13 2 13 14
M  V30 14 1 13 15
M  V30 15 1 15 16
M  V30 16 2 16 17
M  V30 17 1 17 18
M  V30 18 1 18 19
M  V30 19 1 19 20
M  V30 20 1 19 21
M  V30 21 1 19 22
M  V30 22 2 18 23
M  V30 23 1 23 24
M  V30 24 1 24 25
M  V30 25 1 25 26
M  V30 26 1 25 27
M  V30 27 1 25 28
M  V30 28 2 24 29
M  V30 29 1 11 30
M  V30 30 2 30 31
M  V30 31 1 30 32
M  V30 32 1 32 33
M  V30 33 1 33 34
M  V30 34 1 34 35
M  V30 35 1 35 36
M  V30 36 1 36 37
M  V30 37 1 37 38
M  V30 38 1 38 39
M  V30 39 1 39 40
M  V30 40 1 29 16
M  V30 41 1 38 33
M  V30 42 1 40 35
M  V30 43 1 1 41
M  V30 44 1 1 42
M  V30 45 1 1 43
M  V30 46 1 2 44 CFG=3
M  V30 47 1 5 45
M  V30 48 1 5 46
M  V30 49 1 5 47
M  V30 50 1 6 48
M  V30 51 1 6 49
M  V30 52 1 6 50
M  V30 53 1 8 51
M  V30 54 1 8 52
M  V30 55 1 8 53
M  V30 56 1 9 54
M  V30 57 1 9 55
M  V30 58 1 9 56
M  V30 59 1 10 57
M  V30 60 1 10 58
M  V30 61 1 10 59
M  V30 62 1 11 60 CFG=1
M  V30 63 1 12 61
M  V30 64 1 15 62
M  V30 65 1 17 63
M  V30 66 1 23 64
M  V30 67 1 29 65
M  V30 68 1 32 66
M  V30 69 1 33 67 CFG=3
M  V30 70 1 34 68
M  V30 71 1 34 69
M  V30 72 1 35 70
M  V30 73 1 36 71
M  V30 74 1 36 72
M  V30 75 1 37 73
M  V30 76 1 37 74
M  V30 77 1 39 75
M  V30 78 1 39 76
M  V30 79 1 40 77
M  V30 80 1 40 78
M  V30 END BOND
M  V30 END CTAB
M  END
>  <catalyst_id>  (1) 
IITFAHLIDZMCFU_BUJZBAMKSA_NONE

>  <source_smiles>  (1) 
C[C@@H](O[Si](C)(C)C(C)(C)C)[C@H](NC(=S)Nc1cc(C(F)(F)F)cc(C(F)(F)F)c1)C(=O)NC1CC2CCN1CC2

>  <axial_configuration>  (1) 
none

>  <inchikey>  (1) 
IITFAHLIDZMCFU-BUJZBAMKSA-N

>  <build_source>  (1) 
smiles

>  <rdkit_version>  (1) 
2025.09.6

>  <random_seed>  (1) 
42

>  <generated_at>  (1) 
2026-05-19T12:32:31

$$$$
