catalyst95
     RDKit          3D

  0  0  0  0  0  0  0  0  0  0999 V3000
M  V30 BEGIN CTAB
M  V30 COUNTS 68 72 0 0 0
M  V30 BEGIN ATOM
M  V30 1 C -4.293274 3.698855 2.209040 0
M  V30 2 C -3.455504 2.731058 1.814744 0
M  V30 3 C -2.502130 2.863139 0.650431 0 CFG=1
M  V30 4 C -1.025659 2.610333 1.063624 0
M  V30 5 N -0.426458 1.452324 0.334500 0
M  V30 6 C -0.435135 1.776740 -1.118439 0
M  V30 7 C -1.828988 2.162595 -1.630245 0
M  V30 8 C -2.854866 1.906263 -0.515924 0 CFG=1
M  V30 9 C -2.670208 0.433744 -0.103704 0
M  V30 10 C -1.309892 0.254800 0.613655 0 CFG=1
M  V30 11 C -0.594967 -1.109998 0.315607 0 CFG=1
M  V30 12 O 0.378963 -1.399250 1.364308 0
M  V30 13 C 1.703605 -1.187965 1.167735 0
M  V30 14 S 2.673731 -2.402067 1.754303 0
M  V30 15 N 2.012875 0.031532 0.625535 0
M  V30 16 C 3.231675 0.591257 0.192106 0
M  V30 17 C 4.386429 -0.135345 -0.096204 0
M  V30 18 C 5.558567 0.506433 -0.539180 0
M  V30 19 C 6.788901 -0.310930 -0.858829 0
M  V30 20 F 7.024493 -1.297396 0.047820 0
M  V30 21 F 7.928723 0.433984 -0.903742 0
M  V30 22 F 6.696186 -0.924230 -2.070463 0
M  V30 23 C 5.551930 1.897989 -0.717841 0
M  V30 24 C 4.395564 2.645520 -0.460288 0
M  V30 25 C 4.382263 4.144682 -0.634310 0
M  V30 26 F 5.300760 4.586557 -1.537060 0
M  V30 27 F 3.179207 4.614422 -1.068845 0
M  V30 28 F 4.645911 4.803367 0.526126 0
M  V30 29 C 3.247424 1.978945 -0.002341 0
M  V30 30 C -1.526464 -2.318639 0.260777 0
M  V30 31 C -2.268759 -2.679078 1.397270 0
M  V30 32 O -2.188252 -1.931589 2.540372 0
M  V30 33 C -1.634034 -2.690130 3.618482 0
M  V30 34 C -3.140958 -3.751240 1.320455 0
M  V30 35 N -3.303404 -4.511657 0.221461 0
M  V30 36 C -2.582165 -4.205652 -0.864540 0
M  V30 37 C -2.762052 -5.008709 -1.981770 0
M  V30 38 C -2.072975 -4.786694 -3.172394 0
M  V30 39 C -1.178204 -3.733672 -3.252765 0
M  V30 40 C -0.979236 -2.909795 -2.142930 0
M  V30 41 C -1.671264 -3.117852 -0.919190 0
M  V30 42 H -4.343972 4.657471 1.702031 0
M  V30 43 H -4.955776 3.547295 3.056363 0
M  V30 44 H -3.453391 1.792719 2.367174 0
M  V30 45 H -2.563163 3.892290 0.268164 0
M  V30 46 H -0.926481 2.448584 2.144812 0
M  V30 47 H -0.426722 3.506514 0.853294 0
M  V30 48 H -0.045510 0.930771 -1.695923 0
M  V30 49 H 0.264639 2.599782 -1.309651 0
M  V30 50 H -1.846547 3.217845 -1.927908 0
M  V30 51 H -2.075790 1.572366 -2.520796 0
M  V30 52 H -3.871192 2.082881 -0.885196 0
M  V30 53 H -3.483462 0.122535 0.562114 0
M  V30 54 H -2.735915 -0.193342 -1.000983 0
M  V30 55 H -1.489739 0.268639 1.696781 0
M  V30 56 H -0.047366 -1.018249 -0.621777 0
M  V30 57 H 1.219158 0.678161 0.636212 0
M  V30 58 H 4.408483 -1.217971 -0.016369 0
M  V30 59 H 6.454695 2.402242 -1.067197 0
M  V30 60 H 2.356142 2.566732 0.217878 0
M  V30 61 H -0.757207 -3.267902 3.304477 0
M  V30 62 H -1.315649 -1.985172 4.392226 0
M  V30 63 H -2.391258 -3.350298 4.053214 0
M  V30 64 H -3.764937 -4.031725 2.163386 0
M  V30 65 H -3.463809 -5.838262 -1.922106 0
M  V30 66 H -2.237371 -5.438354 -4.026208 0
M  V30 67 H -0.629938 -3.551984 -4.173896 0
M  V30 68 H -0.260278 -2.106218 -2.264539 0
M  V30 END ATOM
M  V30 BEGIN BOND
M  V30 1 2 1 2
M  V30 2 1 2 3
M  V30 3 1 3 4
M  V30 4 1 4 5
M  V30 5 1 5 6
M  V30 6 1 6 7
M  V30 7 1 7 8
M  V30 8 1 8 9
M  V30 9 1 9 10
M  V30 10 1 10 11
M  V30 11 1 11 12
M  V30 12 1 12 13
M  V30 13 2 13 14
M  V30 14 1 13 15
M  V30 15 1 15 16
M  V30 16 2 16 17
M  V30 17 1 17 18
M  V30 18 1 18 19
M  V30 19 1 19 20
M  V30 20 1 19 21
M  V30 21 1 19 22
M  V30 22 2 18 23
M  V30 23 1 23 24
M  V30 24 1 24 25
M  V30 25 1 25 26
M  V30 26 1 25 27
M  V30 27 1 25 28
M  V30 28 2 24 29
M  V30 29 1 11 30
M  V30 30 2 30 31
M  V30 31 1 31 32
M  V30 32 1 32 33
M  V30 33 1 31 34
M  V30 34 2 34 35
M  V30 35 1 35 36
M  V30 36 2 36 37
M  V30 37 1 37 38
M  V30 38 2 38 39
M  V30 39 1 39 40
M  V30 40 2 40 41
M  V30 41 1 8 3
M  V30 42 1 29 16
M  V30 43 1 41 30
M  V30 44 1 10 5
M  V30 45 1 41 36
M  V30 46 1 1 42
M  V30 47 1 1 43
M  V30 48 1 2 44
M  V30 49 1 3 45 CFG=3
M  V30 50 1 4 46
M  V30 51 1 4 47
M  V30 52 1 6 48
M  V30 53 1 6 49
M  V30 54 1 7 50
M  V30 55 1 7 51
M  V30 56 1 8 52 CFG=3
M  V30 57 1 9 53
M  V30 58 1 9 54
M  V30 59 1 10 55 CFG=1
M  V30 60 1 11 56 CFG=3
M  V30 61 1 15 57
M  V30 62 1 17 58
M  V30 63 1 23 59
M  V30 64 1 29 60
M  V30 65 1 33 61
M  V30 66 1 33 62
M  V30 67 1 33 63
M  V30 68 1 34 64
M  V30 69 1 37 65
M  V30 70 1 38 66
M  V30 71 1 39 67
M  V30 72 1 40 68
M  V30 END BOND
M  V30 END CTAB
M  END
>  <catalyst_id>  (1) 
HRUDCEZJYOINPP_IGEKPOMNSA_NONE

>  <source_smiles>  (1) 
C=C[C@H]1CN2CC[C@H]1C[C@H]2[C@@H](OC(=S)Nc1cc(C(F)(F)F)cc(C(F)(F)F)c1)c1c(OC)cnc2ccccc12

>  <axial_configuration>  (1) 
none

>  <inchikey>  (1) 
HRUDCEZJYOINPP-IGEKPOMNSA-N

>  <build_source>  (1) 
smiles

>  <rdkit_version>  (1) 
2025.09.6

>  <random_seed>  (1) 
42

>  <generated_at>  (1) 
2026-05-19T12:34:40

$$$$
