catalyst246
     RDKit          3D

  0  0  0  0  0  0  0  0  0  0999 V3000
M  V30 BEGIN CTAB
M  V30 COUNTS 17 17 0 0 0
M  V30 BEGIN ATOM
M  V30 1 O 2.507274 -0.854184 0.715880 0
M  V30 2 C 1.824755 -0.168327 -0.028843 0
M  V30 3 O 2.264374 1.053892 -0.409904 0
M  V30 4 C 0.478007 -0.558114 -0.650688 0 CFG=1
M  V30 5 C -0.460500 -1.189773 0.376481 0
M  V30 6 C -1.660659 -0.256439 0.452274 0
M  V30 7 C -1.137616 1.056058 -0.088533 0
M  V30 8 N -0.253223 0.627254 -1.168625 0
M  V30 9 H 3.130470 1.138813 0.041570 0
M  V30 10 H 0.690446 -1.239816 -1.480745 0
M  V30 11 H -0.781146 -2.189928 0.065144 0
M  V30 12 H 0.003140 -1.280102 1.365182 0
M  V30 13 H -2.048356 -0.164166 1.471186 0
M  V30 14 H -2.468852 -0.637578 -0.184274 0
M  V30 15 H -1.940901 1.699905 -0.457021 0
M  V30 16 H -0.576656 1.600947 0.679724 0
M  V30 17 H 0.429442 1.361559 -1.379461 0
M  V30 END ATOM
M  V30 BEGIN BOND
M  V30 1 2 1 2
M  V30 2 1 2 3
M  V30 3 1 2 4
M  V30 4 1 4 5
M  V30 5 1 5 6
M  V30 6 1 6 7
M  V30 7 1 7 8
M  V30 8 1 8 4
M  V30 9 1 3 9
M  V30 10 1 4 10 CFG=3
M  V30 11 1 5 11
M  V30 12 1 5 12
M  V30 13 1 6 13
M  V30 14 1 6 14
M  V30 15 1 7 15
M  V30 16 1 7 16
M  V30 17 1 8 17
M  V30 END BOND
M  V30 END CTAB
M  END
>  <catalyst_id>  (1) 
ONIBWKKTOPOVIA_SCSAIBSYSA_NONE

>  <source_smiles>  (1) 
O=C(O)[C@H]1CCCN1

>  <axial_configuration>  (1) 
none

>  <inchikey>  (1) 
ONIBWKKTOPOVIA-SCSAIBSYSA-N

>  <build_source>  (1) 
smiles

>  <rdkit_version>  (1) 
2025.09.6

>  <random_seed>  (1) 
42

>  <generated_at>  (1) 
2026-05-19T12:29:44

$$$$
