catalyst388
     RDKit          3D

  0  0  0  0  0  0  0  0  0  0999 V3000
M  V30 BEGIN CTAB
M  V30 COUNTS 78 80 0 0 0
M  V30 BEGIN ATOM
M  V30 1 C -0.547587 0.329707 -0.044654 0
M  V30 2 C 0.753616 -0.446769 0.058670 0
M  V30 3 O 0.639681 -1.609810 0.537745 0
M  V30 4 O 1.780515 0.165769 -0.345650 0 CHG=-1
M  V30 5 O -2.143525 -0.067121 0.731164 0
M  V30 6 C -1.764882 0.460051 1.784389 0
M  V30 7 N -0.482879 0.331541 2.267640 0
M  V30 8 C 0.579344 -0.204928 1.407926 0 CFG=2
M  V30 9 C 1.691833 -0.834674 2.256505 0
M  V30 10 C 2.583896 0.195637 2.941497 0
M  V30 11 C 3.155268 1.192916 1.942562 0
M  V30 12 C 2.050872 1.879621 1.144001 0
M  V30 13 C 1.112213 0.890260 0.433739 0 CFG=1
M  V30 14 N 1.781033 0.296151 -0.737071 0
M  V30 15 C 1.231201 -0.030418 -1.944634 0
M  V30 16 S -0.342798 0.289626 -2.422536 0
M  V30 17 N 2.063502 -0.609071 -2.863716 0
M  V30 18 C 3.270615 -1.321668 -2.712130 0
M  V30 19 C 4.046687 -1.523433 -3.858173 0
M  V30 20 C 5.260683 -2.230083 -3.799541 0
M  V30 21 C 6.078665 -2.440006 -5.053555 0
M  V30 22 F 7.400781 -2.636398 -4.802004 0
M  V30 23 F 5.659551 -3.523004 -5.760946 0
M  V30 24 F 6.010557 -1.381725 -5.907187 0
M  V30 25 C 5.676849 -2.765628 -2.571270 0
M  V30 26 C 4.899290 -2.596729 -1.416605 0
M  V30 27 C 5.316332 -3.205989 -0.098178 0
M  V30 28 F 4.973032 -2.424167 0.964727 0
M  V30 29 F 4.728733 -4.412458 0.119681 0
M  V30 30 F 6.656925 -3.407602 0.001964 0
M  V30 31 C 3.689093 -1.886948 -1.506603 0
M  V30 32 C -2.716333 1.323576 2.644043 0 CFG=2
M  V30 33 C -3.305461 0.505163 3.791794 0
M  V30 34 C -4.793393 0.837951 3.753161 0
M  V30 35 C -5.072396 1.037459 2.271390 0
M  V30 36 N -3.855643 1.652068 1.778569 0
M  V30 37 C -3.635866 2.441765 0.675008 0
M  V30 38 O -2.685601 3.232675 0.658680 0
M  V30 39 C -4.309485 2.089664 -0.665725 0 CFG=2
M  V30 40 C -5.772534 1.708681 -0.786978 0
M  V30 41 C -5.812295 0.953850 -2.109492 0
M  V30 42 C -4.566944 0.086927 -2.062344 0
M  V30 43 N -3.591101 0.901718 -1.296832 0 CHG=1
M  V30 44 H -1.249988 -0.208137 -0.688384 0
M  V30 45 H -0.384961 1.326109 -0.466700 0
M  V30 46 H -0.991276 0.443131 0.948974 0
M  V30 47 H -0.203267 0.923612 3.042295 0
M  V30 48 H 0.125800 -1.010229 0.815660 0
M  V30 49 H 1.258305 -1.498604 3.014361 0
M  V30 50 H 2.318036 -1.464023 1.613145 0
M  V30 51 H 2.014369 0.730238 3.710925 0
M  V30 52 H 3.404333 -0.316908 3.456788 0
M  V30 53 H 3.845860 0.678770 1.263604 0
M  V30 54 H 3.743107 1.948526 2.476250 0
M  V30 55 H 2.502610 2.561398 0.413110 0
M  V30 56 H 1.459550 2.501559 1.828306 0
M  V30 57 H 0.265929 1.477213 0.060391 0
M  V30 58 H 2.793249 0.324762 -0.729257 0
M  V30 59 H 1.701967 -0.561645 -3.812008 0
M  V30 60 H 3.725245 -1.113011 -4.815551 0
M  V30 61 H 6.611450 -3.328003 -2.516474 0
M  V30 62 H 3.061674 -1.836190 -0.620887 0
M  V30 63 H -2.221311 2.242294 2.974768 0
M  V30 64 H -3.160796 -0.570978 3.636260 0
M  V30 65 H -2.851949 0.762314 4.754042 0
M  V30 66 H -5.416436 0.057869 4.199051 0
M  V30 67 H -4.973355 1.773238 4.297260 0
M  V30 68 H -5.198667 0.074149 1.766647 0
M  V30 69 H -5.937284 1.680759 2.092784 0
M  V30 70 H -4.116943 2.929323 -1.347413 0
M  V30 71 H -6.425489 2.586615 -0.793727 0
M  V30 72 H -6.120413 1.042232 0.000855 0
M  V30 73 H -6.724416 0.361733 -2.226744 0
M  V30 74 H -5.754280 1.656906 -2.949264 0
M  V30 75 H -4.730140 -0.834970 -1.495951 0
M  V30 76 H -4.149732 -0.134759 -3.047623 0
M  V30 77 H -2.790478 1.216176 -1.867731 0
M  V30 78 H -3.122342 0.334383 -0.552065 0
M  V30 END ATOM
M  V30 BEGIN BOND
M  V30 1 1 1 2
M  V30 2 2 2 3
M  V30 3 1 2 4
M  V30 4 2 5 6
M  V30 5 1 6 7
M  V30 6 1 7 8
M  V30 7 1 8 9
M  V30 8 1 9 10
M  V30 9 1 10 11
M  V30 10 1 11 12
M  V30 11 1 12 13
M  V30 12 1 13 14
M  V30 13 1 14 15
M  V30 14 2 15 16
M  V30 15 1 15 17
M  V30 16 1 17 18
M  V30 17 2 18 19
M  V30 18 1 19 20
M  V30 19 1 20 21
M  V30 20 1 21 22
M  V30 21 1 21 23
M  V30 22 1 21 24
M  V30 23 2 20 25
M  V30 24 1 25 26
M  V30 25 1 26 27
M  V30 26 1 27 28
M  V30 27 1 27 29
M  V30 28 1 27 30
M  V30 29 2 26 31
M  V30 30 1 6 32
M  V30 31 1 32 33
M  V30 32 1 33 34
M  V30 33 1 34 35
M  V30 34 1 35 36
M  V30 35 1 36 37
M  V30 36 2 37 38
M  V30 37 1 37 39
M  V30 38 1 39 40
M  V30 39 1 40 41
M  V30 40 1 41 42
M  V30 41 1 42 43
M  V30 42 1 13 8
M  V30 43 1 31 18
M  V30 44 1 36 32
M  V30 45 1 43 39
M  V30 46 1 1 44
M  V30 47 1 1 45
M  V30 48 1 1 46
M  V30 49 1 7 47
M  V30 50 1 8 48 CFG=3
M  V30 51 1 9 49
M  V30 52 1 9 50
M  V30 53 1 10 51
M  V30 54 1 10 52
M  V30 55 1 11 53
M  V30 56 1 11 54
M  V30 57 1 12 55
M  V30 58 1 12 56
M  V30 59 1 13 57 CFG=3
M  V30 60 1 14 58
M  V30 61 1 17 59
M  V30 62 1 19 60
M  V30 63 1 25 61
M  V30 64 1 31 62
M  V30 65 1 32 63 CFG=1
M  V30 66 1 33 64
M  V30 67 1 33 65
M  V30 68 1 34 66
M  V30 69 1 34 67
M  V30 70 1 35 68
M  V30 71 1 35 69
M  V30 72 1 39 70 CFG=3
M  V30 73 1 40 71
M  V30 74 1 40 72
M  V30 75 1 41 73
M  V30 76 1 41 74
M  V30 77 1 42 75
M  V30 78 1 42 76
M  V30 79 1 43 77
M  V30 80 1 43 78
M  V30 END BOND
M  V30 END CTAB
M  END
>  <catalyst_id>  (1) 
WURZVNGSTJXGSY_UAQIFXDFSA_NONE

>  <source_smiles>  (1) 
CC(=O)[O-].O=C(N[C@@H]1CCCC[C@H]1NC(=S)Nc1cc(C(F)(F)F)cc(C(F)(F)F)c1)[C@@H]1CCCN1C(=O)[C@@H]1CCC[NH2+]1

>  <axial_configuration>  (1) 
none

>  <inchikey>  (1) 
WURZVNGSTJXGSY-UAQIFXDFSA-N

>  <build_source>  (1) 
smiles

>  <rdkit_version>  (1) 
2025.09.6

>  <random_seed>  (1) 
42

>  <generated_at>  (1) 
2026-05-19T12:37:19

$$$$
