catalyst312
     RDKit          3D

  0  0  0  0  0  0  0  0  0  0999 V3000
M  V30 BEGIN CTAB
M  V30 COUNTS 50 52 0 0 0
M  V30 BEGIN ATOM
M  V30 1 C 2.326266 1.519592 -1.458463 0
M  V30 2 Si 2.346697 -0.171937 -0.652858 0 VAL=4
M  V30 3 C 2.578837 -1.490047 -1.979636 0
M  V30 4 C 3.934217 -0.221053 0.404702 0
M  V30 5 O 1.065941 -0.540475 0.357721 0
M  V30 6 C -0.289389 -0.029928 0.326495 0
M  V30 7 C -0.289186 1.501777 0.584297 0
M  V30 8 C 0.492808 2.019348 1.640824 0
M  V30 9 C 0.513911 3.384510 1.931743 0
M  V30 10 C -0.258314 4.264953 1.182404 0
M  V30 11 C -1.058671 3.778070 0.152901 0
M  V30 12 C -1.081358 2.409960 -0.138364 0
M  V30 13 C -1.023683 -0.700413 1.544411 0
M  V30 14 C -0.432054 -1.744703 2.281156 0
M  V30 15 C -1.102453 -2.345877 3.349740 0
M  V30 16 C -2.378101 -1.917918 3.705050 0
M  V30 17 C -2.985865 -0.888467 2.992930 0
M  V30 18 C -2.318073 -0.286697 1.923372 0
M  V30 19 C -1.084338 -0.532663 -0.968035 0 CFG=2
M  V30 20 C -1.095829 -2.060598 -1.143750 0
M  V30 21 C -1.348105 -2.299881 -2.628478 0
M  V30 22 C -1.335024 -0.923448 -3.264814 0
M  V30 23 N -0.614600 -0.096255 -2.304529 0
M  V30 24 H 1.439688 1.675422 -2.075802 0
M  V30 25 H 2.368144 2.314138 -0.708487 0
M  V30 26 H 3.201649 1.634818 -2.105732 0
M  V30 27 H 1.778034 -1.458255 -2.721309 0
M  V30 28 H 3.528348 -1.338899 -2.501934 0
M  V30 29 H 2.591079 -2.486261 -1.527823 0
M  V30 30 H 4.046192 -1.206275 0.865974 0
M  V30 31 H 4.809738 -0.020156 -0.219015 0
M  V30 32 H 3.880487 0.534267 1.193806 0
M  V30 33 H 1.093847 1.344522 2.249513 0
M  V30 34 H 1.130400 3.755005 2.746307 0
M  V30 35 H -0.244792 5.327897 1.407325 0
M  V30 36 H -1.675140 4.464680 -0.421990 0
M  V30 37 H -1.746892 2.079350 -0.928449 0
M  V30 38 H 0.562194 -2.106797 2.028123 0
M  V30 39 H -0.623867 -3.149165 3.903789 0
M  V30 40 H -2.896463 -2.384781 4.538050 0
M  V30 41 H -3.979924 -0.548672 3.271502 0
M  V30 42 H -2.819416 0.519705 1.392877 0
M  V30 43 H -2.130114 -0.202946 -0.880825 0
M  V30 44 H -1.880498 -2.529664 -0.540293 0
M  V30 45 H -0.142318 -2.519771 -0.861332 0
M  V30 46 H -0.555483 -2.933179 -3.043193 0
M  V30 47 H -2.304272 -2.805786 -2.797629 0
M  V30 48 H -2.357583 -0.550775 -3.396154 0
M  V30 49 H -0.843452 -0.927993 -4.241779 0
M  V30 50 H -0.793219 0.891722 -2.464339 0
M  V30 END ATOM
M  V30 BEGIN BOND
M  V30 1 1 1 2
M  V30 2 1 2 3
M  V30 3 1 2 4
M  V30 4 1 2 5
M  V30 5 1 5 6
M  V30 6 1 6 7
M  V30 7 2 7 8
M  V30 8 1 8 9
M  V30 9 2 9 10
M  V30 10 1 10 11
M  V30 11 2 11 12
M  V30 12 1 6 13
M  V30 13 2 13 14
M  V30 14 1 14 15
M  V30 15 2 15 16
M  V30 16 1 16 17
M  V30 17 2 17 18
M  V30 18 1 6 19
M  V30 19 1 19 20
M  V30 20 1 20 21
M  V30 21 1 21 22
M  V30 22 1 22 23
M  V30 23 1 12 7
M  V30 24 1 18 13
M  V30 25 1 23 19
M  V30 26 1 1 24
M  V30 27 1 1 25
M  V30 28 1 1 26
M  V30 29 1 3 27
M  V30 30 1 3 28
M  V30 31 1 3 29
M  V30 32 1 4 30
M  V30 33 1 4 31
M  V30 34 1 4 32
M  V30 35 1 8 33
M  V30 36 1 9 34
M  V30 37 1 10 35
M  V30 38 1 11 36
M  V30 39 1 12 37
M  V30 40 1 14 38
M  V30 41 1 15 39
M  V30 42 1 16 40
M  V30 43 1 17 41
M  V30 44 1 18 42
M  V30 45 1 19 43 CFG=1
M  V30 46 1 20 44
M  V30 47 1 20 45
M  V30 48 1 21 46
M  V30 49 1 21 47
M  V30 50 1 22 48
M  V30 51 1 22 49
M  V30 52 1 23 50
M  V30 END BOND
M  V30 END CTAB
M  END
>  <catalyst_id>  (1) 
RSUHWMSTWSSNOW_IBGZPJMESA_NONE

>  <source_smiles>  (1) 
C[Si](C)(C)OC(c1ccccc1)(c1ccccc1)[C@@H]1CCCN1

>  <axial_configuration>  (1) 
none

>  <inchikey>  (1) 
RSUHWMSTWSSNOW-IBGZPJMESA-N

>  <build_source>  (1) 
smiles

>  <rdkit_version>  (1) 
2025.09.6

>  <random_seed>  (1) 
42

>  <generated_at>  (1) 
2026-05-19T12:30:03

$$$$
