catalyst315
     RDKit          3D

  0  0  0  0  0  0  0  0  0  0999 V3000
M  V30 BEGIN CTAB
M  V30 COUNTS 73 78 0 0 0
M  V30 BEGIN ATOM
M  V30 1 C 0.638487 4.343045 1.850583 0
M  V30 2 C 0.182348 3.167825 1.397850 0
M  V30 3 C -1.214860 2.957787 0.863353 0 CFG=1
M  V30 4 C -1.213853 2.468767 -0.608893 0
M  V30 5 N -2.195264 1.378519 -0.837166 0
M  V30 6 C -3.512648 1.851624 -0.336139 0
M  V30 7 C -3.495022 2.032564 1.193187 0
M  V30 8 C -2.040654 1.947786 1.699396 0 CFG=1
M  V30 9 C -1.539300 0.514218 1.419792 0
M  V30 10 C -1.833483 0.145131 -0.057459 0 CFG=2
M  V30 11 C -0.767550 -0.792173 -0.748035 0 CFG=1
M  V30 12 N 0.597388 -0.228260 -0.737393 0
M  V30 13 C 1.466902 -0.366414 -1.720310 0
M  V30 14 C 2.720576 0.104168 -2.033740 0
M  V30 15 N 3.669230 0.882362 -1.553167 0
M  V30 16 C 3.894192 1.289505 -0.221086 0
M  V30 17 C 3.433448 0.560188 0.880115 0
M  V30 18 C 3.608268 1.021330 2.195933 0
M  V30 19 C 3.094001 0.194906 3.349063 0
M  V30 20 F 3.821857 -0.937002 3.543916 0
M  V30 21 F 1.808713 -0.215243 3.152389 0
M  V30 22 F 3.096409 0.858556 4.536625 0
M  V30 23 C 4.265810 2.240865 2.404809 0
M  V30 24 C 4.738692 2.994720 1.319783 0
M  V30 25 C 5.406946 4.328942 1.551965 0
M  V30 26 F 6.171480 4.739433 0.503327 0
M  V30 27 F 6.230232 4.322735 2.636058 0
M  V30 28 F 4.502516 5.321648 1.772294 0
M  V30 29 C 4.537917 2.511360 0.015565 0
M  V30 30 C 2.705373 -0.578113 -3.349429 0
M  V30 31 O 3.414278 -0.672611 -4.320036 0
M  V30 32 C 1.385968 -1.144251 -2.986537 0
M  V30 33 O 0.632597 -1.893060 -3.557416 0
M  V30 34 C -0.775210 -2.189853 -0.122536 0
M  V30 35 C 0.096175 -2.485121 0.936937 0
M  V30 36 C 0.063492 -3.740777 1.506557 0
M  V30 37 N -0.771634 -4.717177 1.110921 0
M  V30 38 C -1.620229 -4.454625 0.106538 0
M  V30 39 C -2.481267 -5.469868 -0.283063 0
M  V30 40 C -3.416659 -5.302976 -1.308198 0
M  V30 41 C -3.498803 -4.086839 -1.968324 0
M  V30 42 O -4.364983 -3.774161 -2.977979 0
M  V30 43 C -5.196188 -4.822719 -3.460116 0
M  V30 44 C -2.637584 -3.052065 -1.591024 0
M  V30 45 C -1.680045 -3.205179 -0.554617 0
M  V30 46 H 0.015819 5.232838 1.864368 0
M  V30 47 H 1.654324 4.444702 2.220255 0
M  V30 48 H 0.856861 2.317823 1.408800 0
M  V30 49 H -1.742602 3.922374 0.895344 0
M  V30 50 H -0.217772 2.170794 -0.947083 0
M  V30 51 H -1.474718 3.314057 -1.260524 0
M  V30 52 H -3.780380 2.795846 -0.827397 0
M  V30 53 H -4.299566 1.141972 -0.620243 0
M  V30 54 H -3.935872 3.000816 1.457553 0
M  V30 55 H -4.103523 1.256392 1.672883 0
M  V30 56 H -1.990683 2.173583 2.770261 0
M  V30 57 H -0.479073 0.434090 1.672110 0
M  V30 58 H -2.068020 -0.188604 2.076359 0
M  V30 59 H -2.750412 -0.463964 -0.042679 0
M  V30 60 H -1.066167 -0.876895 -1.798371 0
M  V30 61 H 0.753112 0.461478 -0.009915 0
M  V30 62 H 4.433154 1.172264 -2.167699 0
M  V30 63 H 2.953175 -0.404574 0.725251 0
M  V30 64 H 4.409105 2.612834 3.421064 0
M  V30 65 H 4.877165 3.110774 -0.829491 0
M  V30 66 H 0.795582 -1.752145 1.321610 0
M  V30 67 H 0.727786 -4.002402 2.325282 0
M  V30 68 H -2.424757 -6.426939 0.231582 0
M  V30 69 H -4.059028 -6.140842 -1.555502 0
M  V30 70 H -5.889396 -5.163201 -2.683957 0
M  V30 71 H -5.791976 -4.423742 -4.286711 0
M  V30 72 H -4.599402 -5.653977 -3.850145 0
M  V30 73 H -2.730791 -2.114847 -2.134358 0
M  V30 END ATOM
M  V30 BEGIN BOND
M  V30 1 2 1 2
M  V30 2 1 2 3
M  V30 3 1 3 4
M  V30 4 1 4 5
M  V30 5 1 5 6
M  V30 6 1 6 7
M  V30 7 1 7 8
M  V30 8 1 8 9
M  V30 9 1 9 10
M  V30 10 1 10 11
M  V30 11 1 11 12
M  V30 12 1 12 13
M  V30 13 2 13 14
M  V30 14 1 14 15
M  V30 15 1 15 16
M  V30 16 2 16 17
M  V30 17 1 17 18
M  V30 18 1 18 19
M  V30 19 1 19 20
M  V30 20 1 19 21
M  V30 21 1 19 22
M  V30 22 2 18 23
M  V30 23 1 23 24
M  V30 24 1 24 25
M  V30 25 1 25 26
M  V30 26 1 25 27
M  V30 27 1 25 28
M  V30 28 2 24 29
M  V30 29 1 14 30
M  V30 30 2 30 31
M  V30 31 1 30 32
M  V30 32 2 32 33
M  V30 33 1 11 34
M  V30 34 2 34 35
M  V30 35 1 35 36
M  V30 36 2 36 37
M  V30 37 1 37 38
M  V30 38 2 38 39
M  V30 39 1 39 40
M  V30 40 2 40 41
M  V30 41 1 41 42
M  V30 42 1 42 43
M  V30 43 1 41 44
M  V30 44 2 44 45
M  V30 45 1 8 3
M  V30 46 1 32 13
M  V30 47 1 45 34
M  V30 48 1 10 5
M  V30 49 1 29 16
M  V30 50 1 45 38
M  V30 51 1 1 46
M  V30 52 1 1 47
M  V30 53 1 2 48
M  V30 54 1 3 49 CFG=3
M  V30 55 1 4 50
M  V30 56 1 4 51
M  V30 57 1 6 52
M  V30 58 1 6 53
M  V30 59 1 7 54
M  V30 60 1 7 55
M  V30 61 1 8 56 CFG=1
M  V30 62 1 9 57
M  V30 63 1 9 58
M  V30 64 1 10 59 CFG=1
M  V30 65 1 11 60 CFG=3
M  V30 66 1 12 61
M  V30 67 1 15 62
M  V30 68 1 17 63
M  V30 69 1 23 64
M  V30 70 1 29 65
M  V30 71 1 35 66
M  V30 72 1 36 67
M  V30 73 1 39 68
M  V30 74 1 40 69
M  V30 75 1 43 70
M  V30 76 1 43 71
M  V30 77 1 43 72
M  V30 78 1 44 73
M  V30 END BOND
M  V30 END CTAB
M  END
>  <catalyst_id>  (1) 
RWVDHFLTDHDJKH_JTSNXCRFSA_NONE

>  <source_smiles>  (1) 
C=C[C@H]1CN2CC[C@H]1C[C@@H]2[C@@H](Nc1c(Nc2cc(C(F)(F)F)cc(C(F)(F)F)c2)c(=O)c1=O)c1ccnc2ccc(OC)cc12

>  <axial_configuration>  (1) 
none

>  <inchikey>  (1) 
RWVDHFLTDHDJKH-JTSNXCRFSA-N

>  <build_source>  (1) 
smiles

>  <rdkit_version>  (1) 
2025.09.6

>  <random_seed>  (1) 
42

>  <generated_at>  (1) 
2026-05-19T12:39:19

$$$$
