catalyst74
     RDKit          3D

  0  0  0  0  0  0  0  0  0  0999 V3000
M  V30 BEGIN CTAB
M  V30 COUNTS 60 62 0 0 0
M  V30 BEGIN ATOM
M  V30 1 C -3.821400 -1.834012 2.294385 0
M  V30 2 N -3.338742 -1.252179 1.040967 0
M  V30 3 C -3.702189 -2.111408 -0.085788 0
M  V30 4 C -3.759933 0.167062 0.883167 0 CFG=2
M  V30 5 C -5.267872 0.402246 0.666805 0
M  V30 6 C -5.595360 1.896411 0.638686 0
M  V30 7 C -4.761397 2.650360 -0.392315 0
M  V30 8 C -3.266017 2.403125 -0.207831 0
M  V30 9 C -2.946118 0.902215 -0.241728 0 CFG=1
M  V30 10 N -1.507080 0.671677 -0.027484 0
M  V30 11 C -0.596483 0.790655 -0.975027 0
M  V30 12 C 0.724526 0.452566 -1.137199 0
M  V30 13 N 1.661545 -0.130628 -0.417511 0
M  V30 14 C 3.033005 -0.397934 -0.887514 0 CFG=2
M  V30 15 C 2.991645 -1.722921 -1.672644 0
M  V30 16 C 4.369589 -2.169431 -2.133268 0
M  V30 17 C 5.315493 -2.298455 -0.952205 0
M  V30 18 C 5.411353 -0.990994 -0.174940 0
M  V30 19 C 4.038360 -0.477856 0.327046 0 CFG=1
M  V30 20 N 4.321855 0.771421 1.092107 0
M  V30 21 C 4.669504 0.481277 2.487601 0
M  V30 22 C 3.292262 1.804650 1.054198 0
M  V30 23 C 0.757242 1.016916 -2.511216 0
M  V30 24 O 1.533165 1.158056 -3.424901 0
M  V30 25 C -0.673725 1.361408 -2.345012 0
M  V30 26 O -1.485318 1.864626 -3.083615 0
M  V30 27 H -4.909973 -1.950355 2.314873 0
M  V30 28 H -3.520940 -1.220088 3.150569 0
M  V30 29 H -3.373534 -2.821968 2.451183 0
M  V30 30 H -3.273946 -3.111423 0.049886 0
M  V30 31 H -4.785830 -2.225168 -0.195708 0
M  V30 32 H -3.293555 -1.735534 -1.028369 0
M  V30 33 H -3.483271 0.666516 1.824367 0
M  V30 34 H -5.854024 -0.064149 1.465833 0
M  V30 35 H -5.594235 -0.047844 -0.278405 0
M  V30 36 H -6.660604 2.034361 0.421105 0
M  V30 37 H -5.416467 2.324685 1.632794 0
M  V30 38 H -5.059723 2.337885 -1.400682 0
M  V30 39 H -4.968536 3.723879 -0.317454 0
M  V30 40 H -2.717150 2.937716 -0.990111 0
M  V30 41 H -2.936750 2.835624 0.746045 0
M  V30 42 H -3.238536 0.495222 -1.218620 0
M  V30 43 H -1.370163 -0.040432 0.697465 0
M  V30 44 H 1.454091 -0.506066 0.506592 0
M  V30 45 H 3.371029 0.402975 -1.558246 0
M  V30 46 H 2.546119 -2.509748 -1.048936 0
M  V30 47 H 2.339475 -1.622038 -2.548773 0
M  V30 48 H 4.292086 -3.132020 -2.651147 0
M  V30 49 H 4.770582 -1.447849 -2.855334 0
M  V30 50 H 6.310764 -2.586898 -1.309104 0
M  V30 51 H 4.971020 -3.098145 -0.285167 0
M  V30 52 H 6.099644 -1.151263 0.662746 0
M  V30 53 H 5.874027 -0.229319 -0.817463 0
M  V30 54 H 3.621098 -1.223915 1.019570 0
M  V30 55 H 4.990263 1.394125 3.002612 0
M  V30 56 H 5.507302 -0.218755 2.560709 0
M  V30 57 H 3.820940 0.057985 3.037421 0
M  V30 58 H 3.635407 2.699003 1.588619 0
M  V30 59 H 3.097890 2.140921 0.031319 0
M  V30 60 H 2.357594 1.483226 1.525048 0
M  V30 END ATOM
M  V30 BEGIN BOND
M  V30 1 1 1 2
M  V30 2 1 2 3
M  V30 3 1 2 4
M  V30 4 1 4 5
M  V30 5 1 5 6
M  V30 6 1 6 7
M  V30 7 1 7 8
M  V30 8 1 8 9
M  V30 9 1 9 10
M  V30 10 1 10 11
M  V30 11 2 11 12
M  V30 12 1 12 13
M  V30 13 1 13 14
M  V30 14 1 14 15
M  V30 15 1 15 16
M  V30 16 1 16 17
M  V30 17 1 17 18
M  V30 18 1 18 19
M  V30 19 1 19 20
M  V30 20 1 20 21
M  V30 21 1 20 22
M  V30 22 1 12 23
M  V30 23 2 23 24
M  V30 24 1 23 25
M  V30 25 2 25 26
M  V30 26 1 9 4
M  V30 27 1 25 11
M  V30 28 1 19 14
M  V30 29 1 1 27
M  V30 30 1 1 28
M  V30 31 1 1 29
M  V30 32 1 3 30
M  V30 33 1 3 31
M  V30 34 1 3 32
M  V30 35 1 4 33 CFG=1
M  V30 36 1 5 34
M  V30 37 1 5 35
M  V30 38 1 6 36
M  V30 39 1 6 37
M  V30 40 1 7 38
M  V30 41 1 7 39
M  V30 42 1 8 40
M  V30 43 1 8 41
M  V30 44 1 9 42 CFG=3
M  V30 45 1 10 43
M  V30 46 1 13 44
M  V30 47 1 14 45 CFG=3
M  V30 48 1 15 46
M  V30 49 1 15 47
M  V30 50 1 16 48
M  V30 51 1 16 49
M  V30 52 1 17 50
M  V30 53 1 17 51
M  V30 54 1 18 52
M  V30 55 1 18 53
M  V30 56 1 19 54 CFG=1
M  V30 57 1 21 55
M  V30 58 1 21 56
M  V30 59 1 21 57
M  V30 60 1 22 58
M  V30 61 1 22 59
M  V30 62 1 22 60
M  V30 END BOND
M  V30 END CTAB
M  END
>  <catalyst_id>  (1) 
GAHWHDKSIFVKIG_KLHDSHLOSA_NONE

>  <source_smiles>  (1) 
CN(C)[C@@H]1CCCC[C@H]1Nc1c(N[C@@H]2CCCC[C@H]2N(C)C)c(=O)c1=O

>  <axial_configuration>  (1) 
none

>  <inchikey>  (1) 
GAHWHDKSIFVKIG-KLHDSHLOSA-N

>  <build_source>  (1) 
smiles

>  <rdkit_version>  (1) 
2025.09.6

>  <random_seed>  (1) 
42

>  <generated_at>  (1) 
2026-05-19T12:39:20

$$$$
