catalyst250
     RDKit          3D

  0  0  0  0  0  0  0  0  0  0999 V3000
M  V30 BEGIN CTAB
M  V30 COUNTS 62 65 0 0 0
M  V30 BEGIN ATOM
M  V30 1 O 0.726522 4.386436 -0.348267 0
M  V30 2 C 0.423196 3.294371 0.063737 0
M  V30 3 C 1.041100 1.953879 0.231606 0
M  V30 4 N 2.262532 1.573610 -0.083927 0
M  V30 5 C 2.837531 0.306614 0.331063 0
M  V30 6 C 4.179538 0.120326 -0.337775 0
M  V30 7 C 5.369371 0.377319 0.358554 0
M  V30 8 C 6.618939 0.233298 -0.266248 0
M  V30 9 C 7.894038 0.490246 0.503993 0
M  V30 10 F 8.334894 -0.621573 1.152858 0
M  V30 11 F 7.753908 1.451846 1.457970 0
M  V30 12 F 8.923283 0.897632 -0.288584 0
M  V30 13 C 6.664631 -0.185524 -1.606219 0
M  V30 14 C 5.486289 -0.445944 -2.324444 0
M  V30 15 C 5.544480 -0.861657 -3.776332 0
M  V30 16 F 6.672149 -1.560567 -4.083788 0
M  V30 17 F 4.502122 -1.657328 -4.144230 0
M  V30 18 F 5.520752 0.205154 -4.620075 0
M  V30 19 C 4.249883 -0.276840 -1.681923 0
M  V30 20 C -0.107387 1.436016 0.780232 0
M  V30 21 N -0.514936 0.275473 1.255944 0
M  V30 22 C -1.907751 -0.008742 1.662842 0 CFG=2
M  V30 23 C -1.910570 -1.082518 2.766888 0
M  V30 24 C -1.521089 -2.473494 2.267788 0
M  V30 25 C -2.309439 -2.888071 1.031063 0
M  V30 26 C -2.252465 -1.816758 -0.056281 0
M  V30 27 C -2.788321 -0.441835 0.430041 0 CFG=1
M  V30 28 N -4.248240 -0.458962 0.756513 0
M  V30 29 C -5.112397 -1.097525 -0.254531 0
M  V30 30 C -5.224444 -0.305559 -1.558722 0
M  V30 31 C -5.735171 1.106692 -1.294465 0
M  V30 32 C -4.928339 1.785343 -0.193038 0
M  V30 33 C -4.796658 0.887116 1.041881 0
M  V30 34 C -0.816739 2.738980 0.652481 0
M  V30 35 O -1.899834 3.217759 0.884224 0
M  V30 36 H 2.952748 2.261618 -0.391539 0
M  V30 37 H 2.951837 0.282160 1.421648 0
M  V30 38 H 2.184376 -0.530693 0.055373 0
M  V30 39 H 5.326849 0.699958 1.399732 0
M  V30 40 H 7.631472 -0.306408 -2.098801 0
M  V30 41 H 3.326797 -0.454352 -2.236083 0
M  V30 42 H 0.067125 -0.553916 1.170137 0
M  V30 43 H -2.298369 0.904239 2.119497 0
M  V30 44 H -1.230185 -0.790270 3.576313 0
M  V30 45 H -2.913907 -1.137013 3.207957 0
M  V30 46 H -1.679999 -3.206642 3.067076 0
M  V30 47 H -0.449204 -2.497008 2.037937 0
M  V30 48 H -1.902565 -3.827708 0.639999 0
M  V30 49 H -3.349836 -3.089494 1.310780 0
M  V30 50 H -2.780902 -2.161007 -0.951058 0
M  V30 51 H -1.211010 -1.703459 -0.384967 0
M  V30 52 H -2.611023 0.265510 -0.388930 0
M  V30 53 H -4.807235 -2.127359 -0.460802 0
M  V30 54 H -6.117690 -1.205795 0.176422 0
M  V30 55 H -4.252065 -0.261176 -2.062894 0
M  V30 56 H -5.910961 -0.818489 -2.242010 0
M  V30 57 H -6.788669 1.058584 -0.991791 0
M  V30 58 H -5.694472 1.701466 -2.213550 0
M  V30 59 H -3.938234 2.052334 -0.578063 0
M  V30 60 H -5.416786 2.725245 0.089032 0
M  V30 61 H -5.793348 0.757319 1.485998 0
M  V30 62 H -4.226122 1.407143 1.815281 0
M  V30 END ATOM
M  V30 BEGIN BOND
M  V30 1 2 1 2
M  V30 2 1 2 3
M  V30 3 1 3 4
M  V30 4 1 4 5
M  V30 5 1 5 6
M  V30 6 2 6 7
M  V30 7 1 7 8
M  V30 8 1 8 9
M  V30 9 1 9 10
M  V30 10 1 9 11
M  V30 11 1 9 12
M  V30 12 2 8 13
M  V30 13 1 13 14
M  V30 14 1 14 15
M  V30 15 1 15 16
M  V30 16 1 15 17
M  V30 17 1 15 18
M  V30 18 2 14 19
M  V30 19 2 3 20
M  V30 20 1 20 21
M  V30 21 1 21 22
M  V30 22 1 22 23
M  V30 23 1 23 24
M  V30 24 1 24 25
M  V30 25 1 25 26
M  V30 26 1 26 27
M  V30 27 1 27 28
M  V30 28 1 28 29
M  V30 29 1 29 30
M  V30 30 1 30 31
M  V30 31 1 31 32
M  V30 32 1 32 33
M  V30 33 1 20 34
M  V30 34 2 34 35
M  V30 35 1 34 2
M  V30 36 1 19 6
M  V30 37 1 27 22
M  V30 38 1 33 28
M  V30 39 1 4 36
M  V30 40 1 5 37
M  V30 41 1 5 38
M  V30 42 1 7 39
M  V30 43 1 13 40
M  V30 44 1 19 41
M  V30 45 1 21 42
M  V30 46 1 22 43 CFG=1
M  V30 47 1 23 44
M  V30 48 1 23 45
M  V30 49 1 24 46
M  V30 50 1 24 47
M  V30 51 1 25 48
M  V30 52 1 25 49
M  V30 53 1 26 50
M  V30 54 1 26 51
M  V30 55 1 27 52 CFG=3
M  V30 56 1 29 53
M  V30 57 1 29 54
M  V30 58 1 30 55
M  V30 59 1 30 56
M  V30 60 1 31 57
M  V30 61 1 31 58
M  V30 62 1 32 59
M  V30 63 1 32 60
M  V30 64 1 33 61
M  V30 65 1 33 62
M  V30 END BOND
M  V30 END CTAB
M  END
>  <catalyst_id>  (1) 
PDZWACLMJXTIDC_QZTJIDSGSA_NONE

>  <source_smiles>  (1) 
O=c1c(NCc2cc(C(F)(F)F)cc(C(F)(F)F)c2)c(N[C@@H]2CCCC[C@H]2N2CCCCC2)c1=O

>  <axial_configuration>  (1) 
none

>  <inchikey>  (1) 
PDZWACLMJXTIDC-QZTJIDSGSA-N

>  <build_source>  (1) 
smiles

>  <rdkit_version>  (1) 
2025.09.6

>  <random_seed>  (1) 
42

>  <generated_at>  (1) 
2026-05-19T12:34:51

$$$$
