catalyst126
     RDKit          3D

  0  0  0  0  0  0  0  0  0  0999 V3000
M  V30 BEGIN CTAB
M  V30 COUNTS 62 64 0 0 0
M  V30 BEGIN ATOM
M  V30 1 C -0.188470 4.812470 -0.704077 0
M  V30 2 C 0.043594 3.307687 -0.771114 0
M  V30 3 C -0.265424 2.577196 0.553992 0 CFG=2
M  V30 4 C 0.629682 3.081816 1.697580 0
M  V30 5 C -0.170623 1.022206 0.445331 0 CFG=1
M  V30 6 C -1.113530 0.370844 -0.596482 0
M  V30 7 P -2.921569 0.684880 -0.347123 0
M  V30 8 C -3.704364 -0.549884 -1.448395 0
M  V30 9 C -4.900981 -1.189066 -1.084043 0
M  V30 10 C -5.515401 -2.115421 -1.932334 0
M  V30 11 C -4.953114 -2.407420 -3.170658 0
M  V30 12 C -3.782575 -1.766222 -3.563655 0
M  V30 13 C -3.168928 -0.840390 -2.713199 0
M  V30 14 C -3.211142 -0.017875 1.309344 0
M  V30 15 C -2.745246 -1.281921 1.697260 0
M  V30 16 C -2.984227 -1.767009 2.985633 0
M  V30 17 C -3.695467 -0.997083 3.902293 0
M  V30 18 C -4.167744 0.259282 3.532128 0
M  V30 19 C -3.926262 0.745930 2.244792 0
M  V30 20 N 1.216707 0.608328 0.184445 0
M  V30 21 C 1.671690 -0.647659 0.531418 0
M  V30 22 O 0.985917 -1.490920 1.095610 0
M  V30 23 C 3.071757 -0.971984 0.141781 0
M  V30 24 C 3.403679 -2.312423 -0.093660 0
M  V30 25 C 4.711320 -2.676389 -0.450267 0
M  V30 26 C 5.051326 -4.122532 -0.728253 0
M  V30 27 F 6.370580 -4.403073 -0.539632 0
M  V30 28 F 4.367517 -4.994372 0.060932 0
M  V30 29 F 4.773101 -4.475137 -2.012651 0
M  V30 30 C 5.684116 -1.670018 -0.576463 0
M  V30 31 C 5.370464 -0.321274 -0.334641 0
M  V30 32 C 6.435425 0.747213 -0.429410 0
M  V30 33 F 5.936378 1.951565 -0.823747 0
M  V30 34 F 7.054350 0.966255 0.760988 0
M  V30 35 F 7.418709 0.441510 -1.319131 0
M  V30 36 C 4.058550 0.016614 0.038204 0
M  V30 37 H 0.527335 5.301182 -0.036942 0
M  V30 38 H -0.064641 5.254422 -1.698178 0
M  V30 39 H -1.201379 5.039428 -0.357087 0
M  V30 40 H 1.080408 3.128906 -1.077060 0
M  V30 41 H -0.595197 2.915981 -1.569253 0
M  V30 42 H -1.294022 2.830522 0.839885 0
M  V30 43 H 0.455978 2.504573 2.612211 0
M  V30 44 H 0.414120 4.128175 1.935278 0
M  V30 45 H 1.691827 3.006027 1.442473 0
M  V30 46 H -0.424417 0.613420 1.432187 0
M  V30 47 H -0.943269 -0.712237 -0.606064 0
M  V30 48 H -0.831200 0.713384 -1.598164 0
M  V30 49 H -5.377453 -0.975250 -0.129324 0
M  V30 50 H -6.435699 -2.603492 -1.622410 0
M  V30 51 H -5.430909 -3.126077 -3.830821 0
M  V30 52 H -3.346811 -1.980365 -4.536014 0
M  V30 53 H -2.268520 -0.346024 -3.066704 0
M  V30 54 H -2.185053 -1.907947 1.005776 0
M  V30 55 H -2.608170 -2.746369 3.270348 0
M  V30 56 H -3.878905 -1.375968 4.904071 0
M  V30 57 H -4.723019 0.863182 4.244799 0
M  V30 58 H -4.304833 1.731027 1.979593 0
M  V30 59 H 1.740844 1.135949 -0.499442 0
M  V30 60 H 2.634826 -3.080532 0.005560 0
M  V30 61 H 6.703617 -1.942067 -0.858661 0
M  V30 62 H 3.824748 1.054428 0.271146 0
M  V30 END ATOM
M  V30 BEGIN BOND
M  V30 1 1 1 2
M  V30 2 1 2 3
M  V30 3 1 3 4
M  V30 4 1 3 5
M  V30 5 1 5 6
M  V30 6 1 6 7
M  V30 7 1 7 8
M  V30 8 2 8 9
M  V30 9 1 9 10
M  V30 10 2 10 11
M  V30 11 1 11 12
M  V30 12 2 12 13
M  V30 13 1 7 14
M  V30 14 2 14 15
M  V30 15 1 15 16
M  V30 16 2 16 17
M  V30 17 1 17 18
M  V30 18 2 18 19
M  V30 19 1 5 20
M  V30 20 1 20 21
M  V30 21 2 21 22
M  V30 22 1 21 23
M  V30 23 2 23 24
M  V30 24 1 24 25
M  V30 25 1 25 26
M  V30 26 1 26 27
M  V30 27 1 26 28
M  V30 28 1 26 29
M  V30 29 2 25 30
M  V30 30 1 30 31
M  V30 31 1 31 32
M  V30 32 1 32 33
M  V30 33 1 32 34
M  V30 34 1 32 35
M  V30 35 2 31 36
M  V30 36 1 13 8
M  V30 37 1 19 14
M  V30 38 1 36 23
M  V30 39 1 1 37
M  V30 40 1 1 38
M  V30 41 1 1 39
M  V30 42 1 2 40
M  V30 43 1 2 41
M  V30 44 1 3 42 CFG=1
M  V30 45 1 4 43
M  V30 46 1 4 44
M  V30 47 1 4 45
M  V30 48 1 5 46 CFG=1
M  V30 49 1 6 47
M  V30 50 1 6 48
M  V30 51 1 9 49
M  V30 52 1 10 50
M  V30 53 1 11 51
M  V30 54 1 12 52
M  V30 55 1 13 53
M  V30 56 1 15 54
M  V30 57 1 16 55
M  V30 58 1 17 56
M  V30 59 1 18 57
M  V30 60 1 19 58
M  V30 61 1 20 59
M  V30 62 1 24 60
M  V30 63 1 30 61
M  V30 64 1 36 62
M  V30 END BOND
M  V30 END CTAB
M  END
>  <catalyst_id>  (1) 
JBFFZXZEJNVVMN_MHECFPHRSA_NONE

>  <source_smiles>  (1) 
CC[C@H](C)[C@@H](CP(c1ccccc1)c1ccccc1)NC(=O)c1cc(C(F)(F)F)cc(C(F)(F)F)c1

>  <axial_configuration>  (1) 
none

>  <inchikey>  (1) 
JBFFZXZEJNVVMN-MHECFPHRSA-N

>  <build_source>  (1) 
smiles

>  <rdkit_version>  (1) 
2025.09.6

>  <random_seed>  (1) 
42

>  <generated_at>  (1) 
2026-05-19T12:33:43

$$$$
