catalyst188
     RDKit          3D

  0  0  0  0  0  0  0  0  0  0999 V3000
M  V30 BEGIN CTAB
M  V30 COUNTS 42 44 0 0 0
M  V30 BEGIN ATOM
M  V30 1 N 0.529290 -2.557894 -0.947804 0
M  V30 2 C 0.735648 -1.329950 -0.139805 0 CFG=1
M  V30 3 C 2.182002 -0.869682 -0.260521 0
M  V30 4 C 2.689730 -0.318551 -1.448896 0
M  V30 5 C 4.019798 0.100003 -1.531170 0
M  V30 6 C 4.863428 -0.032447 -0.431072 0
M  V30 7 C 4.380208 -0.588578 0.750533 0
M  V30 8 C 3.050780 -1.007483 0.834323 0
M  V30 9 C -0.336686 -0.207674 -0.491327 0 CFG=2
M  V30 10 C -0.257618 1.025301 0.411185 0
M  V30 11 C -0.270950 2.306902 -0.168567 0
M  V30 12 C -0.193268 3.455307 0.621882 0
M  V30 13 C -0.100261 3.343177 2.006017 0
M  V30 14 C -0.085266 2.083854 2.599404 0
M  V30 15 C -0.163049 0.934287 1.809250 0
M  V30 16 N -1.693551 -0.798705 -0.645368 0
M  V30 17 C -2.347709 -1.280359 0.567391 0
M  V30 18 C -3.734864 -1.642068 0.055554 0
M  V30 19 C -3.972649 -0.713418 -1.131745 0
M  V30 20 C -2.673719 0.065027 -1.297805 0
M  V30 21 H 0.809697 -2.357373 -1.905707 0
M  V30 22 H -0.487537 -2.674021 -1.008412 0
M  V30 23 H 0.562934 -1.644241 0.896658 0
M  V30 24 H 2.056944 -0.214191 -2.326106 0
M  V30 25 H 4.398284 0.526101 -2.456434 0
M  V30 26 H 5.898378 0.291743 -0.496224 0
M  V30 27 H 5.038433 -0.700455 1.607866 0
M  V30 28 H 2.695676 -1.446998 1.763660 0
M  V30 29 H -0.068496 0.130367 -1.502595 0
M  V30 30 H -0.339563 2.419080 -1.248552 0
M  V30 31 H -0.201972 4.436904 0.155560 0
M  V30 32 H -0.036934 4.236160 2.621871 0
M  V30 33 H -0.010891 1.994506 3.680099 0
M  V30 34 H -0.152041 -0.032785 2.305003 0
M  V30 35 H -1.851427 -2.149968 1.007765 0
M  V30 36 H -2.444380 -0.502656 1.332155 0
M  V30 37 H -3.762809 -2.685698 -0.280156 0
M  V30 38 H -4.498543 -1.517809 0.829792 0
M  V30 39 H -4.818402 -0.041235 -0.953788 0
M  V30 40 H -4.194792 -1.303995 -2.028059 0
M  V30 41 H -2.771973 1.037066 -0.801593 0
M  V30 42 H -2.441880 0.232450 -2.354263 0
M  V30 END ATOM
M  V30 BEGIN BOND
M  V30 1 1 1 2
M  V30 2 1 2 3
M  V30 3 2 3 4
M  V30 4 1 4 5
M  V30 5 2 5 6
M  V30 6 1 6 7
M  V30 7 2 7 8
M  V30 8 1 2 9
M  V30 9 1 9 10
M  V30 10 2 10 11
M  V30 11 1 11 12
M  V30 12 2 12 13
M  V30 13 1 13 14
M  V30 14 2 14 15
M  V30 15 1 9 16
M  V30 16 1 16 17
M  V30 17 1 17 18
M  V30 18 1 18 19
M  V30 19 1 19 20
M  V30 20 1 8 3
M  V30 21 1 15 10
M  V30 22 1 20 16
M  V30 23 1 1 21
M  V30 24 1 1 22
M  V30 25 1 2 23 CFG=1
M  V30 26 1 4 24
M  V30 27 1 5 25
M  V30 28 1 6 26
M  V30 29 1 7 27
M  V30 30 1 8 28
M  V30 31 1 9 29 CFG=3
M  V30 32 1 11 30
M  V30 33 1 12 31
M  V30 34 1 13 32
M  V30 35 1 14 33
M  V30 36 1 15 34
M  V30 37 1 17 35
M  V30 38 1 17 36
M  V30 39 1 18 37
M  V30 40 1 18 38
M  V30 41 1 19 39
M  V30 42 1 19 40
M  V30 43 1 20 41
M  V30 44 1 20 42
M  V30 END BOND
M  V30 END CTAB
M  END
>  <catalyst_id>  (1) 
LWMFIMXQOJYJRC_ROUUACIJSA_NONE

>  <source_smiles>  (1) 
N[C@@H](c1ccccc1)[C@H](c1ccccc1)N1CCCC1

>  <axial_configuration>  (1) 
none

>  <inchikey>  (1) 
LWMFIMXQOJYJRC-ROUUACIJSA-N

>  <build_source>  (1) 
smiles

>  <rdkit_version>  (1) 
2025.09.6

>  <random_seed>  (1) 
42

>  <generated_at>  (1) 
2026-05-19T12:37:16

$$$$
