catalyst199
     RDKit          3D

  0  0  0  0  0  0  0  0  0  0999 V3000
M  V30 BEGIN CTAB
M  V30 COUNTS 64 66 0 0 0
M  V30 BEGIN ATOM
M  V30 1 C -1.149768 -5.120767 0.133593 0
M  V30 2 C -0.444888 -3.894654 -0.433289 0
M  V30 3 C -1.361780 -2.651981 -0.587299 0 CFG=2
M  V30 4 C -2.528531 -2.974343 -1.531063 0
M  V30 5 C -0.544665 -1.423453 -1.092774 0 CFG=1
M  V30 6 C -1.333795 -0.093605 -1.260132 0
M  V30 7 P -1.795129 0.754969 0.333780 0
M  V30 8 C -2.359310 2.413860 -0.202405 0
M  V30 9 C -3.421326 3.060985 0.453384 0
M  V30 10 C -3.843118 4.338361 0.070787 0
M  V30 11 C -3.195138 5.005708 -0.962716 0
M  V30 12 C -2.118334 4.400780 -1.602362 0
M  V30 13 C -1.698871 3.122115 -1.218382 0
M  V30 14 C -3.358073 -0.073281 0.776015 0
M  V30 15 C -3.463072 -0.686991 2.033663 0
M  V30 16 C -4.637561 -1.340355 2.415829 0
M  V30 17 C -5.725660 -1.383807 1.548174 0
M  V30 18 C -5.641915 -0.770828 0.300876 0
M  V30 19 C -4.467020 -0.118569 -0.081592 0
M  V30 20 N 0.643626 -1.208583 -0.252509 0
M  V30 21 C 1.755690 -0.560449 -0.756686 0
M  V30 22 O 1.845569 -0.211873 -1.925509 0
M  V30 23 N 2.706283 -0.399704 0.227503 0
M  V30 24 C 3.930487 0.288955 0.133098 0
M  V30 25 C 4.291370 1.083208 -0.957052 0
M  V30 26 C 5.523018 1.760366 -0.984300 0
M  V30 27 C 5.896022 2.599112 -2.184005 0
M  V30 28 F 4.850157 3.312135 -2.684524 0
M  V30 29 F 6.372480 1.848466 -3.213950 0
M  V30 30 F 6.868456 3.514357 -1.909661 0
M  V30 31 C 6.402737 1.619916 0.100030 0
M  V30 32 C 6.059999 0.826012 1.204340 0
M  V30 33 C 6.994264 0.701410 2.383562 0
M  V30 34 F 6.777365 1.667886 3.316387 0
M  V30 35 F 8.307194 0.798756 2.037289 0
M  V30 36 F 6.868344 -0.486458 3.038349 0
M  V30 37 C 4.814719 0.175507 1.212546 0
M  V30 38 H -0.417693 -5.906332 0.348000 0
M  V30 39 H -1.670249 -4.879773 1.065719 0
M  V30 40 H -1.872716 -5.535036 -0.574765 0
M  V30 41 H 0.384621 -3.660169 0.243776 0
M  V30 42 H 0.001020 -4.153025 -1.401598 0
M  V30 43 H -1.766022 -2.429167 0.405478 0
M  V30 44 H -3.157255 -3.773543 -1.126919 0
M  V30 45 H -2.162295 -3.293263 -2.512823 0
M  V30 46 H -3.187499 -2.118580 -1.684210 0
M  V30 47 H -0.173239 -1.685889 -2.093844 0
M  V30 48 H -2.203434 -0.223118 -1.909399 0
M  V30 49 H -0.670213 0.586629 -1.802787 0
M  V30 50 H -3.939622 2.580988 1.281232 0
M  V30 51 H -4.673617 4.811011 0.588548 0
M  V30 52 H -3.518343 5.999853 -1.258997 0
M  V30 53 H -1.592643 4.925696 -2.396122 0
M  V30 54 H -0.830949 2.707075 -1.723777 0
M  V30 55 H -2.629419 -0.662845 2.732264 0
M  V30 56 H -4.702441 -1.812401 3.392760 0
M  V30 57 H -6.640251 -1.890073 1.845750 0
M  V30 58 H -6.492062 -0.795794 -0.376048 0
M  V30 59 H -4.433169 0.360585 -1.057951 0
M  V30 60 H 0.437576 -0.992722 0.712682 0
M  V30 61 H 2.557769 -0.961714 1.052448 0
M  V30 62 H 3.622338 1.203869 -1.806773 0
M  V30 63 H 7.364334 2.136214 0.084644 0
M  V30 64 H 4.545645 -0.431638 2.076112 0
M  V30 END ATOM
M  V30 BEGIN BOND
M  V30 1 1 1 2
M  V30 2 1 2 3
M  V30 3 1 3 4
M  V30 4 1 3 5
M  V30 5 1 5 6
M  V30 6 1 6 7
M  V30 7 1 7 8
M  V30 8 2 8 9
M  V30 9 1 9 10
M  V30 10 2 10 11
M  V30 11 1 11 12
M  V30 12 2 12 13
M  V30 13 1 7 14
M  V30 14 2 14 15
M  V30 15 1 15 16
M  V30 16 2 16 17
M  V30 17 1 17 18
M  V30 18 2 18 19
M  V30 19 1 5 20
M  V30 20 1 20 21
M  V30 21 2 21 22
M  V30 22 1 21 23
M  V30 23 1 23 24
M  V30 24 2 24 25
M  V30 25 1 25 26
M  V30 26 1 26 27
M  V30 27 1 27 28
M  V30 28 1 27 29
M  V30 29 1 27 30
M  V30 30 2 26 31
M  V30 31 1 31 32
M  V30 32 1 32 33
M  V30 33 1 33 34
M  V30 34 1 33 35
M  V30 35 1 33 36
M  V30 36 2 32 37
M  V30 37 1 13 8
M  V30 38 1 19 14
M  V30 39 1 37 24
M  V30 40 1 1 38
M  V30 41 1 1 39
M  V30 42 1 1 40
M  V30 43 1 2 41
M  V30 44 1 2 42
M  V30 45 1 3 43 CFG=1
M  V30 46 1 4 44
M  V30 47 1 4 45
M  V30 48 1 4 46
M  V30 49 1 5 47 CFG=3
M  V30 50 1 6 48
M  V30 51 1 6 49
M  V30 52 1 9 50
M  V30 53 1 10 51
M  V30 54 1 11 52
M  V30 55 1 12 53
M  V30 56 1 13 54
M  V30 57 1 15 55
M  V30 58 1 16 56
M  V30 59 1 17 57
M  V30 60 1 18 58
M  V30 61 1 19 59
M  V30 62 1 20 60
M  V30 63 1 23 61
M  V30 64 1 25 62
M  V30 65 1 31 63
M  V30 66 1 37 64
M  V30 END BOND
M  V30 END CTAB
M  END
>  <catalyst_id>  (1) 
MKEQHNAUAJMMJO_MHECFPHRSA_NONE

>  <source_smiles>  (1) 
CC[C@H](C)[C@@H](CP(c1ccccc1)c1ccccc1)NC(=O)Nc1cc(C(F)(F)F)cc(C(F)(F)F)c1

>  <axial_configuration>  (1) 
none

>  <inchikey>  (1) 
MKEQHNAUAJMMJO-MHECFPHRSA-N

>  <build_source>  (1) 
smiles

>  <rdkit_version>  (1) 
2025.09.6

>  <random_seed>  (1) 
42

>  <generated_at>  (1) 
2026-05-19T12:33:41

$$$$
