catalyst106
     RDKit          3D

  0  0  0  0  0  0  0  0  0  0999 V3000
M  V30 BEGIN CTAB
M  V30 COUNTS 70 78 0 0 0
M  V30 BEGIN ATOM
M  V30 1 O 0.445732 0.465279 -2.530048 0
M  V30 2 P -0.163535 -0.207759 -1.339972 0
M  V30 3 O -1.121189 -1.425244 -1.775030 0
M  V30 4 O 0.857240 -0.883723 -0.292522 0
M  V30 5 C 1.478400 -0.045891 0.608401 0
M  V30 6 C 2.861714 0.142431 0.453905 0
M  V30 7 C 3.631602 -0.520102 -0.606019 0
M  V30 8 C 3.713960 0.034274 -1.888384 0
M  V30 9 C 4.452309 -0.596740 -2.893045 0
M  V30 10 C 5.131539 -1.796616 -2.637338 0
M  V30 11 C 5.878250 -2.442743 -3.635767 0
M  V30 12 C 6.547478 -3.637339 -3.365229 0
M  V30 13 C 6.477940 -4.200858 -2.094614 0
M  V30 14 C 5.739041 -3.570959 -1.091755 0
M  V30 15 C 5.060470 -2.368077 -1.347342 0
M  V30 16 C 4.311082 -1.721707 -0.348956 0
M  V30 17 C 3.514368 0.979764 1.359427 0
M  V30 18 C 2.816415 1.640555 2.374339 0
M  V30 19 C 3.511486 2.517393 3.224557 0
M  V30 20 C 2.848974 3.234285 4.216752 0
M  V30 21 C 1.478456 3.092317 4.360930 0
M  V30 22 C 0.778564 2.217084 3.525861 0
M  V30 23 C 1.418865 1.436720 2.529328 0
M  V30 24 C 0.719143 0.517929 1.665249 0
M  V30 25 C -0.670876 0.143699 1.837691 0
M  V30 26 C -1.580444 0.268415 0.758628 0
M  V30 27 C -2.958902 0.007211 0.856370 0
M  V30 28 C -3.864369 0.152425 -0.293706 0
M  V30 29 C -4.160554 1.413235 -0.826445 0
M  V30 30 C -5.000141 1.541988 -1.936116 0
M  V30 31 C -5.564550 0.410523 -2.542441 0
M  V30 32 C -6.404722 0.521588 -3.661925 0
M  V30 33 C -6.955053 -0.615340 -4.255754 0
M  V30 34 C -6.672936 -1.876101 -3.738288 0
M  V30 35 C -5.840091 -2.002947 -2.625508 0
M  V30 36 C -5.278858 -0.868969 -2.016407 0
M  V30 37 C -4.435543 -0.980024 -0.897898 0
M  V30 38 C -3.456084 -0.422684 2.086720 0
M  V30 39 C -2.612557 -0.625501 3.182806 0
M  V30 40 C -3.159755 -1.105455 4.385054 0
M  V30 41 C -2.352321 -1.380765 5.484601 0
M  V30 42 C -0.983299 -1.194102 5.388152 0
M  V30 43 C -0.429659 -0.709519 4.199759 0
M  V30 44 C -1.218374 -0.372301 3.069664 0
M  V30 45 O -1.129217 0.731783 -0.457852 0
M  V30 46 H -1.640026 -1.179514 -2.562966 0
M  V30 47 H 3.191204 0.960698 -2.120559 0
M  V30 48 H 4.486010 -0.142265 -3.880617 0
M  V30 49 H 5.942062 -2.017921 -4.634980 0
M  V30 50 H 7.120983 -4.127143 -4.147666 0
M  V30 51 H 6.996996 -5.131847 -1.882775 0
M  V30 52 H 5.694421 -4.027761 -0.105698 0
M  V30 53 H 4.248200 -2.161416 0.645076 0
M  V30 54 H 4.587331 1.135417 1.248242 0
M  V30 55 H 4.584578 2.660921 3.110303 0
M  V30 56 H 3.400660 3.913180 4.861259 0
M  V30 57 H 0.945081 3.663122 5.116659 0
M  V30 58 H -0.300357 2.162559 3.660875 0
M  V30 59 H -3.731060 2.308604 -0.380514 0
M  V30 60 H -5.206671 2.536672 -2.325200 0
M  V30 61 H -6.636809 1.498240 -4.080972 0
M  V30 62 H -7.604045 -0.515167 -5.121940 0
M  V30 63 H -7.101426 -2.762160 -4.199631 0
M  V30 64 H -5.632213 -2.997060 -2.235419 0
M  V30 65 H -4.203009 -1.966237 -0.497213 0
M  V30 66 H -4.523096 -0.623128 2.180624 0
M  V30 67 H -4.230038 -1.284840 4.471173 0
M  V30 68 H -2.790780 -1.757781 6.404488 0
M  V30 69 H -0.337451 -1.428993 6.230278 0
M  V30 70 H 0.653901 -0.610400 4.166708 0
M  V30 END ATOM
M  V30 BEGIN BOND
M  V30 1 2 1 2
M  V30 2 1 2 3
M  V30 3 1 2 4
M  V30 4 1 4 5
M  V30 5 2 5 6
M  V30 6 1 6 7
M  V30 7 2 7 8
M  V30 8 1 8 9
M  V30 9 2 9 10
M  V30 10 1 10 11
M  V30 11 2 11 12
M  V30 12 1 12 13
M  V30 13 2 13 14
M  V30 14 1 14 15
M  V30 15 2 15 16
M  V30 16 1 6 17
M  V30 17 2 17 18
M  V30 18 1 18 19
M  V30 19 2 19 20
M  V30 20 1 20 21
M  V30 21 2 21 22
M  V30 22 1 22 23
M  V30 23 2 23 24
M  V30 24 1 24 25
M  V30 25 2 25 26
M  V30 26 1 26 27
M  V30 27 1 27 28
M  V30 28 2 28 29
M  V30 29 1 29 30
M  V30 30 2 30 31
M  V30 31 1 31 32
M  V30 32 2 32 33
M  V30 33 1 33 34
M  V30 34 2 34 35
M  V30 35 1 35 36
M  V30 36 2 36 37
M  V30 37 2 27 38
M  V30 38 1 38 39
M  V30 39 2 39 40
M  V30 40 1 40 41
M  V30 41 2 41 42
M  V30 42 1 42 43
M  V30 43 2 43 44
M  V30 44 1 26 45
M  V30 45 1 45 2
M  V30 46 1 24 5
M  V30 47 1 44 25
M  V30 48 1 16 7
M  V30 49 1 23 18
M  V30 50 1 37 28
M  V30 51 1 44 39
M  V30 52 1 15 10
M  V30 53 1 36 31
M  V30 54 1 3 46
M  V30 55 1 8 47
M  V30 56 1 9 48
M  V30 57 1 11 49
M  V30 58 1 12 50
M  V30 59 1 13 51
M  V30 60 1 14 52
M  V30 61 1 16 53
M  V30 62 1 17 54
M  V30 63 1 19 55
M  V30 64 1 20 56
M  V30 65 1 21 57
M  V30 66 1 22 58
M  V30 67 1 29 59
M  V30 68 1 30 60
M  V30 69 1 32 61
M  V30 70 1 33 62
M  V30 71 1 34 63
M  V30 72 1 35 64
M  V30 73 1 37 65
M  V30 74 1 38 66
M  V30 75 1 40 67
M  V30 76 1 41 68
M  V30 77 1 42 69
M  V30 78 1 43 70
M  V30 END BOND
M  V30 END CTAB
M  END
>  <catalyst_id>  (1) 
IHLZSTKPUGDSET_UHFFFAOYSA_R

>  <source_smiles>  (1) 
O=P1(O)Oc2c(-c3ccc4ccccc4c3)cc3ccccc3c2-c2c(c(-c3ccc4ccccc4c3)cc3ccccc23)O1

>  <axial_configuration>  (1) 
R

>  <inchikey>  (1) 
IHLZSTKPUGDSET-UHFFFAOYSA-N

>  <build_source>  (1) 
smiles+axial_free

>  <final_biaryl_angle_deg>  (1) 
85.00

>  <rdkit_version>  (1) 
2025.09.6

>  <random_seed>  (1) 
42

>  <generated_at>  (1) 
2026-05-19T12:30:01

$$$$
