catalyst77
     RDKit          3D

  0  0  0  0  0  0  0  0  0  0999 V3000
M  V30 BEGIN CTAB
M  V30 COUNTS 55 59 0 0 0
M  V30 BEGIN ATOM
M  V30 1 C 3.420460 1.232837 2.342792 0
M  V30 2 C 3.623273 0.020113 1.811269 0
M  V30 3 C 3.742470 -0.346791 0.346405 0 CFG=1
M  V30 4 C 2.848300 -1.573163 0.007340 0
M  V30 5 N 2.169844 -1.441325 -1.311691 0
M  V30 6 C 3.206708 -1.140078 -2.328753 0
M  V30 7 C 3.868714 0.223846 -2.074449 0
M  V30 8 C 3.434817 0.759891 -0.695971 0 CFG=1
M  V30 9 C 1.912476 0.994960 -0.753667 0
M  V30 10 C 1.209776 -0.280294 -1.271095 0 CFG=2
M  V30 11 C -0.103672 -0.624850 -0.472434 0 CFG=2
M  V30 12 N -0.503667 -2.014511 -0.869938 0
M  V30 13 S -1.194873 -2.965248 0.342316 0
M  V30 14 O -1.498379 -4.242934 -0.263480 0
M  V30 15 O -0.348984 -2.864411 1.511267 0
M  V30 16 C -2.779761 -2.262259 0.739423 0
M  V30 17 C -3.878363 -1.989790 -0.055553 0
M  V30 18 C -4.939026 -1.377614 0.671181 0
M  V30 19 C -4.624379 -1.222550 2.002513 0
M  V30 20 S -3.063159 -1.818920 2.366551 0
M  V30 21 C -1.218331 0.373420 -0.750893 0
M  V30 22 C -1.823052 0.354730 -2.018072 0
M  V30 23 C -2.841073 1.243009 -2.289746 0
M  V30 24 N -3.298810 2.142877 -1.402041 0
M  V30 25 C -2.738725 2.174349 -0.183322 0
M  V30 26 C -3.234107 3.104068 0.720094 0
M  V30 27 C -2.727824 3.222567 2.013888 0
M  V30 28 C -1.696792 2.392114 2.420645 0
M  V30 29 C -1.178720 1.449481 1.531737 0
M  V30 30 C -1.683762 1.314542 0.212110 0
M  V30 31 H 3.370031 1.357435 3.421216 0
M  V30 32 H 3.311713 2.129391 1.742652 0
M  V30 33 H 3.746080 -0.812629 2.505786 0
M  V30 34 H 4.790128 -0.649975 0.204191 0
M  V30 35 H 3.471589 -2.477336 -0.008061 0
M  V30 36 H 2.105050 -1.760410 0.790018 0
M  V30 37 H 3.964082 -1.934239 -2.331136 0
M  V30 38 H 2.761320 -1.157693 -3.331084 0
M  V30 39 H 4.959381 0.120846 -2.116426 0
M  V30 40 H 3.579959 0.934596 -2.858292 0
M  V30 41 H 3.967213 1.690678 -0.474211 0
M  V30 42 H 1.538519 1.287514 0.231032 0
M  V30 43 H 1.695487 1.828280 -1.433584 0
M  V30 44 H 0.909492 -0.099715 -2.313545 0
M  V30 45 H 0.157553 -0.638498 0.586480 0
M  V30 46 H 0.337015 -2.501980 -1.212357 0
M  V30 47 H -3.900619 -2.207618 -1.116516 0
M  V30 48 H -5.881760 -1.063615 0.239563 0
M  V30 49 H -5.236494 -0.789160 2.781698 0
M  V30 50 H -1.514482 -0.355084 -2.780388 0
M  V30 51 H -3.333936 1.253337 -3.257590 0
M  V30 52 H -4.044729 3.757840 0.405263 0
M  V30 53 H -3.142740 3.960374 2.695137 0
M  V30 54 H -1.295453 2.470207 3.428031 0
M  V30 55 H -0.375778 0.819387 1.903699 0
M  V30 END ATOM
M  V30 BEGIN BOND
M  V30 1 2 1 2
M  V30 2 1 2 3
M  V30 3 1 3 4
M  V30 4 1 4 5
M  V30 5 1 5 6
M  V30 6 1 6 7
M  V30 7 1 7 8
M  V30 8 1 8 9
M  V30 9 1 9 10
M  V30 10 1 10 11
M  V30 11 1 11 12
M  V30 12 1 12 13
M  V30 13 2 13 14
M  V30 14 2 13 15
M  V30 15 1 13 16
M  V30 16 2 16 17
M  V30 17 1 17 18
M  V30 18 2 18 19
M  V30 19 1 19 20
M  V30 20 1 11 21
M  V30 21 2 21 22
M  V30 22 1 22 23
M  V30 23 2 23 24
M  V30 24 1 24 25
M  V30 25 2 25 26
M  V30 26 1 26 27
M  V30 27 2 27 28
M  V30 28 1 28 29
M  V30 29 2 29 30
M  V30 30 1 8 3
M  V30 31 1 20 16
M  V30 32 1 30 21
M  V30 33 1 10 5
M  V30 34 1 30 25
M  V30 35 1 1 31
M  V30 36 1 1 32
M  V30 37 1 2 33
M  V30 38 1 3 34 CFG=1
M  V30 39 1 4 35
M  V30 40 1 4 36
M  V30 41 1 6 37
M  V30 42 1 6 38
M  V30 43 1 7 39
M  V30 44 1 7 40
M  V30 45 1 8 41 CFG=1
M  V30 46 1 9 42
M  V30 47 1 9 43
M  V30 48 1 10 44 CFG=3
M  V30 49 1 11 45 CFG=1
M  V30 50 1 12 46
M  V30 51 1 17 47
M  V30 52 1 18 48
M  V30 53 1 19 49
M  V30 54 1 22 50
M  V30 55 1 23 51
M  V30 56 1 26 52
M  V30 57 1 27 53
M  V30 58 1 28 54
M  V30 59 1 29 55
M  V30 END BOND
M  V30 END CTAB
M  END
>  <catalyst_id>  (1) 
GFXAQCMTSCIQMV_RKOCDCBOSA_NONE

>  <source_smiles>  (1) 
C=C[C@H]1CN2CC[C@H]1C[C@@H]2[C@H](NS(=O)(=O)c1cccs1)c1ccnc2ccccc12

>  <axial_configuration>  (1) 
none

>  <inchikey>  (1) 
GFXAQCMTSCIQMV-RKOCDCBOSA-N

>  <build_source>  (1) 
smiles

>  <rdkit_version>  (1) 
2025.09.6

>  <random_seed>  (1) 
42

>  <generated_at>  (1) 
2026-05-19T12:33:39

$$$$
