catalyst182
     RDKit          3D

  0  0  0  0  0  0  0  0  0  0999 V3000
M  V30 BEGIN CTAB
M  V30 COUNTS 36 38 0 0 0
M  V30 BEGIN ATOM
M  V30 1 C -1.701118 2.359785 1.340130 0
M  V30 2 N -1.065111 1.062276 1.376348 0
M  V30 3 C -0.018274 0.776126 2.229182 0
M  V30 4 O 0.617468 1.567141 2.907993 0
M  V30 5 C 0.161794 -0.729023 2.203839 0 CFG=2
M  V30 6 C 1.613886 -1.134555 1.915193 0
M  V30 7 C 2.114835 -0.787737 0.527685 0
M  V30 8 C 2.037108 -1.726652 -0.510884 0
M  V30 9 C 2.469659 -1.399593 -1.797049 0
M  V30 10 C 2.983086 -0.131133 -2.058552 0
M  V30 11 C 3.066963 0.809580 -1.033948 0
M  V30 12 C 2.637033 0.483508 0.253330 0
M  V30 13 N -0.800993 -1.209254 1.197282 0
M  V30 14 C -1.741653 -0.124950 0.953953 0 CFG=2
M  V30 15 C -2.070386 -0.061234 -0.491377 0
M  V30 16 C -3.284458 -0.047788 -1.153472 0
M  V30 17 C -3.017545 0.031945 -2.541995 0
M  V30 18 C -1.650532 0.061623 -2.696352 0
M  V30 19 N -1.083203 0.002761 -1.451567 0
M  V30 20 H -2.569824 2.345262 2.004657 0
M  V30 21 H -1.007528 3.131965 1.684796 0
M  V30 22 H -2.016504 2.593620 0.320476 0
M  V30 23 H -0.138357 -1.097775 3.192687 0
M  V30 24 H 1.719279 -2.217489 2.064301 0
M  V30 25 H 2.283365 -0.670713 2.651675 0
M  V30 26 H 1.625250 -2.716230 -0.324851 0
M  V30 27 H 2.403189 -2.135014 -2.594662 0
M  V30 28 H 3.321366 0.123665 -3.059453 0
M  V30 29 H 3.469636 1.799144 -1.234763 0
M  V30 30 H 2.709099 1.231875 1.041161 0
M  V30 31 H -1.304405 -2.027091 1.525240 0
M  V30 32 H -2.638214 -0.249234 1.573369 0
M  V30 33 H -4.260372 -0.088120 -0.687268 0
M  V30 34 H -3.744088 0.062682 -3.343497 0
M  V30 35 H -1.030311 0.116367 -3.580593 0
M  V30 36 H -0.090142 -0.005738 -1.244576 0
M  V30 END ATOM
M  V30 BEGIN BOND
M  V30 1 1 1 2
M  V30 2 1 2 3
M  V30 3 2 3 4
M  V30 4 1 3 5
M  V30 5 1 5 6
M  V30 6 1 6 7
M  V30 7 2 7 8
M  V30 8 1 8 9
M  V30 9 2 9 10
M  V30 10 1 10 11
M  V30 11 2 11 12
M  V30 12 1 5 13
M  V30 13 1 13 14
M  V30 14 1 14 15
M  V30 15 2 15 16
M  V30 16 1 16 17
M  V30 17 2 17 18
M  V30 18 1 18 19
M  V30 19 1 14 2
M  V30 20 1 19 15
M  V30 21 1 12 7
M  V30 22 1 1 20
M  V30 23 1 1 21
M  V30 24 1 1 22
M  V30 25 1 5 23 CFG=1
M  V30 26 1 6 24
M  V30 27 1 6 25
M  V30 28 1 8 26
M  V30 29 1 9 27
M  V30 30 1 10 28
M  V30 31 1 11 29
M  V30 32 1 12 30
M  V30 33 1 13 31
M  V30 34 1 14 32 CFG=1
M  V30 35 1 16 33
M  V30 36 1 17 34
M  V30 37 1 18 35
M  V30 38 1 19 36
M  V30 END BOND
M  V30 END CTAB
M  END
>  <catalyst_id>  (1) 
LPURKHXMMFBMDW_KBPBESRZSA_NONE

>  <source_smiles>  (1) 
CN1C(=O)[C@H](Cc2ccccc2)N[C@@H]1c1ccc[nH]1

>  <axial_configuration>  (1) 
none

>  <inchikey>  (1) 
LPURKHXMMFBMDW-KBPBESRZSA-N

>  <build_source>  (1) 
smiles

>  <rdkit_version>  (1) 
2025.09.6

>  <random_seed>  (1) 
42

>  <generated_at>  (1) 
2026-05-19T12:30:04

$$$$
