catalyst111
     RDKit          3D

  0  0  0  0  0  0  0  0  0  0999 V3000
M  V30 BEGIN CTAB
M  V30 COUNTS 67 71 0 0 0
M  V30 BEGIN ATOM
M  V30 1 C -1.867832 -6.040622 0.909004 0
M  V30 2 C -1.583034 -4.749773 0.692826 0
M  V30 3 C -2.488103 -3.799457 -0.055243 0 CFG=1
M  V30 4 C -2.888196 -2.577563 0.811932 0
M  V30 5 N -2.827140 -1.306543 0.045407 0
M  V30 6 C -3.604322 -1.476242 -1.204365 0
M  V30 7 C -2.955398 -2.516620 -2.132470 0
M  V30 8 C -1.851148 -3.263991 -1.362273 0 CFG=1
M  V30 9 C -0.760814 -2.232390 -1.007695 0
M  V30 10 C -1.406080 -0.997988 -0.321963 0 CFG=2
M  V30 11 C -0.533893 -0.431478 0.861969 0 CFG=1
M  V30 12 N 0.792617 0.018383 0.434031 0
M  V30 13 C 1.921794 -0.758066 0.575879 0
M  V30 14 O 1.913512 -1.895274 1.032154 0
M  V30 15 C 3.207749 -0.122308 0.173004 0
M  V30 16 C 3.266972 0.863754 -0.821164 0
M  V30 17 C 4.494353 1.440435 -1.173996 0
M  V30 18 C 4.564484 2.467040 -2.266460 0
M  V30 19 C 5.665107 0.998766 -0.542395 0
M  V30 20 C 5.619991 0.011778 0.451113 0
M  V30 21 C 6.883658 -0.479797 1.093263 0
M  V30 22 C 4.386305 -0.555152 0.793076 0
M  V30 23 C -1.214333 0.685558 1.660484 0
M  V30 24 C -1.514864 0.405779 3.003153 0
M  V30 25 C -2.129746 1.371837 3.771231 0
M  V30 26 N -2.460291 2.591469 3.311471 0
M  V30 27 C -2.179026 2.880500 2.033226 0
M  V30 28 C -2.523836 4.146260 1.582167 0
M  V30 29 C -2.268308 4.570261 0.275273 0
M  V30 30 C -1.649034 3.706509 -0.613137 0
M  V30 31 O -1.325107 3.978296 -1.912912 0
M  V30 32 C -1.715656 5.249862 -2.418091 0
M  V30 33 C -1.297704 2.425615 -0.176961 0
M  V30 34 C -1.550749 1.974115 1.145251 0
M  V30 35 H -1.175697 -6.675475 1.454391 0
M  V30 36 H -2.785761 -6.494379 0.549068 0
M  V30 37 H -0.644040 -4.355396 1.080025 0
M  V30 38 H -3.407861 -4.337189 -0.327816 0
M  V30 39 H -2.276144 -2.499704 1.718107 0
M  V30 40 H -3.913775 -2.719341 1.178039 0
M  V30 41 H -3.691551 -0.514355 -1.724568 0
M  V30 42 H -4.633016 -1.772959 -0.963314 0
M  V30 43 H -3.715239 -3.220900 -2.490744 0
M  V30 44 H -2.528121 -2.022942 -3.013674 0
M  V30 45 H -1.435924 -4.074521 -1.971260 0
M  V30 46 H -0.007771 -2.704992 -0.373516 0
M  V30 47 H -0.247137 -1.909904 -1.922081 0
M  V30 48 H -1.445850 -0.211947 -1.084784 0
M  V30 49 H -0.364456 -1.270096 1.549345 0
M  V30 50 H 0.918640 1.009556 0.285322 0
M  V30 51 H 2.368190 1.171166 -1.349119 0
M  V30 52 H 4.705580 1.974936 -3.233619 0
M  V30 53 H 5.394257 3.161324 -2.097296 0
M  V30 54 H 3.645929 3.062251 -2.302159 0
M  V30 55 H 6.625043 1.423889 -0.832104 0
M  V30 56 H 6.695971 -0.814972 2.118762 0
M  V30 57 H 7.631492 0.318494 1.144871 0
M  V30 58 H 7.295581 -1.314338 0.517633 0
M  V30 59 H 4.338144 -1.339309 1.547241 0
M  V30 60 H -1.279996 -0.556286 3.448269 0
M  V30 61 H -2.380572 1.184207 4.811159 0
M  V30 62 H -3.008001 4.830924 2.275886 0
M  V30 63 H -2.564360 5.575725 -0.002499 0
M  V30 64 H -2.803071 5.373538 -2.380320 0
M  V30 65 H -1.410924 5.300035 -3.467860 0
M  V30 66 H -1.206118 6.058793 -1.884269 0
M  V30 67 H -0.815368 1.781211 -0.903904 0
M  V30 END ATOM
M  V30 BEGIN BOND
M  V30 1 2 1 2
M  V30 2 1 2 3
M  V30 3 1 3 4
M  V30 4 1 4 5
M  V30 5 1 5 6
M  V30 6 1 6 7
M  V30 7 1 7 8
M  V30 8 1 8 9
M  V30 9 1 9 10
M  V30 10 1 10 11
M  V30 11 1 11 12
M  V30 12 1 12 13
M  V30 13 2 13 14
M  V30 14 1 13 15
M  V30 15 2 15 16
M  V30 16 1 16 17
M  V30 17 1 17 18
M  V30 18 2 17 19
M  V30 19 1 19 20
M  V30 20 1 20 21
M  V30 21 2 20 22
M  V30 22 1 11 23
M  V30 23 2 23 24
M  V30 24 1 24 25
M  V30 25 2 25 26
M  V30 26 1 26 27
M  V30 27 2 27 28
M  V30 28 1 28 29
M  V30 29 2 29 30
M  V30 30 1 30 31
M  V30 31 1 31 32
M  V30 32 1 30 33
M  V30 33 2 33 34
M  V30 34 1 8 3
M  V30 35 1 22 15
M  V30 36 1 34 23
M  V30 37 1 10 5
M  V30 38 1 34 27
M  V30 39 1 1 35
M  V30 40 1 1 36
M  V30 41 1 2 37
M  V30 42 1 3 38 CFG=3
M  V30 43 1 4 39
M  V30 44 1 4 40
M  V30 45 1 6 41
M  V30 46 1 6 42
M  V30 47 1 7 43
M  V30 48 1 7 44
M  V30 49 1 8 45 CFG=3
M  V30 50 1 9 46
M  V30 51 1 9 47
M  V30 52 1 10 48 CFG=3
M  V30 53 1 11 49 CFG=1
M  V30 54 1 12 50
M  V30 55 1 16 51
M  V30 56 1 18 52
M  V30 57 1 18 53
M  V30 58 1 18 54
M  V30 59 1 19 55
M  V30 60 1 21 56
M  V30 61 1 21 57
M  V30 62 1 21 58
M  V30 63 1 22 59
M  V30 64 1 24 60
M  V30 65 1 25 61
M  V30 66 1 28 62
M  V30 67 1 29 63
M  V30 68 1 32 64
M  V30 69 1 32 65
M  V30 70 1 32 66
M  V30 71 1 33 67
M  V30 END BOND
M  V30 END CTAB
M  END
>  <catalyst_id>  (1) 
IKBUCAZQZNZCEX_KUOHOMRPSA_NONE

>  <source_smiles>  (1) 
C=C[C@H]1CN2CC[C@H]1C[C@@H]2[C@@H](NC(=O)c1cc(C)cc(C)c1)c1ccnc2ccc(OC)cc12

>  <axial_configuration>  (1) 
none

>  <inchikey>  (1) 
IKBUCAZQZNZCEX-KUOHOMRPSA-N

>  <build_source>  (1) 
smiles

>  <rdkit_version>  (1) 
2025.09.6

>  <random_seed>  (1) 
42

>  <generated_at>  (1) 
2026-05-19T12:31:41

$$$$
