catalyst258
     RDKit          3D

  0  0  0  0  0  0  0  0  0  0999 V3000
M  V30 BEGIN CTAB
M  V30 COUNTS 76 81 0 0 0
M  V30 BEGIN ATOM
M  V30 1 C -7.517970 -2.148525 2.310489 0
M  V30 2 C -6.276751 -1.722370 2.044372 0
M  V30 3 C -5.557894 -1.978193 0.747692 0 CFG=1
M  V30 4 C -5.379982 -0.685933 -0.091100 0
M  V30 5 N -4.010604 -0.582161 -0.661854 0
M  V30 6 C -3.718285 -1.843770 -1.387783 0
M  V30 7 C -3.649461 -3.047724 -0.437747 0
M  V30 8 C -4.164433 -2.623117 0.949125 0 CFG=1
M  V30 9 C -3.155221 -1.582462 1.479390 0
M  V30 10 C -3.052140 -0.397349 0.485738 0 CFG=1
M  V30 11 C -1.567146 -0.116276 0.015922 0 CFG=1
M  V30 12 N -1.604233 0.757019 -1.179706 0
M  V30 13 C -0.621178 0.823219 -2.061881 0
M  V30 14 C 0.729257 0.578260 -2.153521 0
M  V30 15 N 1.694098 0.171441 -1.353806 0
M  V30 16 C 3.082007 -0.027832 -1.747372 0
M  V30 17 C 3.853672 1.271872 -1.699075 0
M  V30 18 C 4.152336 1.885736 -0.470846 0
M  V30 19 C 4.890869 3.079217 -0.421888 0
M  V30 20 C 5.234164 3.739917 0.892829 0
M  V30 21 F 4.905266 2.996367 1.984556 0
M  V30 22 F 4.607419 4.938315 1.049914 0
M  V30 23 F 6.568645 3.996785 1.005268 0
M  V30 24 C 5.317930 3.663441 -1.628978 0
M  V30 25 C 5.025767 3.072545 -2.868479 0
M  V30 26 C 5.503851 3.718301 -4.147295 0
M  V30 27 F 6.864049 3.793851 -4.203329 0
M  V30 28 F 5.118542 3.059405 -5.271738 0
M  V30 29 F 5.051526 4.995759 -4.287835 0
M  V30 30 C 4.294105 1.875759 -2.888407 0
M  V30 31 C 0.752013 0.946865 -3.593137 0
M  V30 32 O 1.529768 0.981533 -4.515363 0
M  V30 33 C -0.692174 1.262370 -3.479171 0
M  V30 34 O -1.518054 1.684159 -4.246965 0
M  V30 35 C -0.741555 0.536469 1.123130 0
M  V30 36 C -0.983088 1.885132 1.431586 0
M  V30 37 C -0.244969 2.490058 2.426086 0
M  V30 38 N 0.700492 1.853732 3.138891 0
M  V30 39 C 0.945458 0.566202 2.864396 0
M  V30 40 C 1.936447 -0.064680 3.602825 0
M  V30 41 C 2.279011 -1.403530 3.401394 0
M  V30 42 C 1.614946 -2.139261 2.430489 0
M  V30 43 O 1.849128 -3.452239 2.132580 0
M  V30 44 C 2.454423 -4.220538 3.170297 0
M  V30 45 C 0.632475 -1.515084 1.656936 0
M  V30 46 C 0.260072 -0.160505 1.859963 0
M  V30 47 H -7.981355 -1.933206 3.269421 0
M  V30 48 H -8.105355 -2.710090 1.592694 0
M  V30 49 H -5.755346 -1.161745 2.814391 0
M  V30 50 H -6.156984 -2.681754 0.156919 0
M  V30 51 H -6.107685 -0.690949 -0.913035 0
M  V30 52 H -5.606837 0.216855 0.491377 0
M  V30 53 H -2.783415 -1.762761 -1.956452 0
M  V30 54 H -4.495635 -2.005647 -2.144752 0
M  V30 55 H -4.246247 -3.880370 -0.831326 0
M  V30 56 H -2.610500 -3.402908 -0.358987 0
M  V30 57 H -4.209756 -3.489152 1.618571 0
M  V30 58 H -2.188847 -2.072833 1.627090 0
M  V30 59 H -3.475965 -1.216238 2.461466 0
M  V30 60 H -3.387762 0.502633 1.019331 0
M  V30 61 H -1.125509 -1.062888 -0.303153 0
M  V30 62 H -2.573509 0.812689 -1.521198 0
M  V30 63 H 1.569866 0.218195 -0.343724 0
M  V30 64 H 3.147744 -0.498486 -2.735005 0
M  V30 65 H 3.545756 -0.732550 -1.048208 0
M  V30 66 H 3.805156 1.428423 0.456525 0
M  V30 67 H 5.894965 4.588928 -1.602822 0
M  V30 68 H 4.057213 1.409514 -3.848689 0
M  V30 69 H -1.727648 2.461936 0.890134 0
M  V30 70 H -0.395135 3.536717 2.680541 0
M  V30 71 H 2.462520 0.510810 4.367316 0
M  V30 72 H 3.075249 -1.832380 4.001461 0
M  V30 73 H 2.382627 -5.275995 2.891085 0
M  V30 74 H 3.514642 -3.974193 3.269282 0
M  V30 75 H 1.927457 -4.093433 4.124957 0
M  V30 76 H 0.157698 -2.121304 0.890449 0
M  V30 END ATOM
M  V30 BEGIN BOND
M  V30 1 2 1 2
M  V30 2 1 2 3
M  V30 3 1 3 4
M  V30 4 1 4 5
M  V30 5 1 5 6
M  V30 6 1 6 7
M  V30 7 1 7 8
M  V30 8 1 8 9
M  V30 9 1 9 10
M  V30 10 1 10 11
M  V30 11 1 11 12
M  V30 12 1 12 13
M  V30 13 2 13 14
M  V30 14 1 14 15
M  V30 15 1 15 16
M  V30 16 1 16 17
M  V30 17 2 17 18
M  V30 18 1 18 19
M  V30 19 1 19 20
M  V30 20 1 20 21
M  V30 21 1 20 22
M  V30 22 1 20 23
M  V30 23 2 19 24
M  V30 24 1 24 25
M  V30 25 1 25 26
M  V30 26 1 26 27
M  V30 27 1 26 28
M  V30 28 1 26 29
M  V30 29 2 25 30
M  V30 30 1 14 31
M  V30 31 2 31 32
M  V30 32 1 31 33
M  V30 33 2 33 34
M  V30 34 1 11 35
M  V30 35 2 35 36
M  V30 36 1 36 37
M  V30 37 2 37 38
M  V30 38 1 38 39
M  V30 39 2 39 40
M  V30 40 1 40 41
M  V30 41 2 41 42
M  V30 42 1 42 43
M  V30 43 1 43 44
M  V30 44 1 42 45
M  V30 45 2 45 46
M  V30 46 1 8 3
M  V30 47 1 33 13
M  V30 48 1 46 35
M  V30 49 1 10 5
M  V30 50 1 30 17
M  V30 51 1 46 39
M  V30 52 1 1 47
M  V30 53 1 1 48
M  V30 54 1 2 49
M  V30 55 1 3 50 CFG=3
M  V30 56 1 4 51
M  V30 57 1 4 52
M  V30 58 1 6 53
M  V30 59 1 6 54
M  V30 60 1 7 55
M  V30 61 1 7 56
M  V30 62 1 8 57 CFG=1
M  V30 63 1 9 58
M  V30 64 1 9 59
M  V30 65 1 10 60 CFG=1
M  V30 66 1 11 61 CFG=3
M  V30 67 1 12 62
M  V30 68 1 15 63
M  V30 69 1 16 64
M  V30 70 1 16 65
M  V30 71 1 18 66
M  V30 72 1 24 67
M  V30 73 1 30 68
M  V30 74 1 36 69
M  V30 75 1 37 70
M  V30 76 1 40 71
M  V30 77 1 41 72
M  V30 78 1 44 73
M  V30 79 1 44 74
M  V30 80 1 44 75
M  V30 81 1 45 76
M  V30 END BOND
M  V30 END CTAB
M  END
>  <catalyst_id>  (1) 
PKQBGWDNBVWQDJ_MOVYAIRMSA_NONE

>  <source_smiles>  (1) 
C=C[C@H]1CN2CC[C@H]1C[C@H]2[C@@H](Nc1c(NCc2cc(C(F)(F)F)cc(C(F)(F)F)c2)c(=O)c1=O)c1ccnc2ccc(OC)cc12

>  <axial_configuration>  (1) 
none

>  <inchikey>  (1) 
PKQBGWDNBVWQDJ-MOVYAIRMSA-N

>  <build_source>  (1) 
smiles

>  <rdkit_version>  (1) 
2025.09.6

>  <random_seed>  (1) 
42

>  <generated_at>  (1) 
2026-05-19T12:34:09

$$$$
