catalyst123
     RDKit          3D

  0  0  0  0  0  0  0  0  0  0999 V3000
M  V30 BEGIN CTAB
M  V30 COUNTS 69 73 0 0 0
M  V30 BEGIN ATOM
M  V30 1 C -4.086715 -2.253534 -2.952041 0
M  V30 2 C -3.405473 -1.772811 -1.903789 0
M  V30 3 C -3.100599 -2.572336 -0.659227 0 CFG=1
M  V30 4 C -1.578520 -2.627757 -0.365526 0
M  V30 5 N -1.273862 -2.384479 1.072031 0
M  V30 6 C -2.091821 -3.321475 1.880895 0
M  V30 7 C -3.595758 -3.039484 1.731363 0
M  V30 8 C -3.814057 -2.018734 0.599679 0 CFG=1
M  V30 9 C -3.141544 -0.702573 1.035781 0
M  V30 10 C -1.674391 -0.977781 1.440283 0 CFG=2
M  V30 11 C -0.669206 0.098968 0.882404 0 CFG=2
M  V30 12 N 0.702161 -0.450133 0.970487 0
M  V30 13 C 1.795661 -0.059095 0.217014 0
M  V30 14 S 1.867069 1.302266 -0.752705 0
M  V30 15 N 2.850369 -0.938456 0.474488 0
M  V30 16 C 4.083642 -0.956283 -0.240392 0
M  V30 17 C 5.278864 -0.743350 0.479960 0
M  V30 18 Cl 5.190975 -0.488465 2.197184 0
M  V30 19 C 6.515049 -0.718345 -0.177315 0
M  V30 20 C 7.802784 -0.464632 0.567681 0
M  V30 21 F 8.896129 -0.478121 -0.248139 0
M  V30 22 F 8.054016 -1.401977 1.521017 0
M  V30 23 F 7.830317 0.743764 1.189739 0
M  V30 24 C 6.539795 -0.935956 -1.568167 0
M  V30 25 C 5.367422 -1.208093 -2.302025 0
M  V30 26 C 5.461365 -1.484616 -3.783981 0
M  V30 27 F 5.137082 -2.766663 -4.103307 0
M  V30 28 F 6.723558 -1.302208 -4.271591 0
M  V30 29 F 4.667062 -0.678270 -4.536370 0
M  V30 30 C 4.139876 -1.241210 -1.623928 0
M  V30 31 Cl 2.716415 -1.786577 -2.463016 0
M  V30 32 C -0.793549 1.412906 1.650439 0
M  V30 33 C -0.261598 1.479222 2.948396 0
M  V30 34 C -0.397422 2.644845 3.672016 0
M  V30 35 N -1.026954 3.739385 3.209706 0
M  V30 36 C -1.531857 3.700769 1.967818 0
M  V30 37 C -2.168756 4.842549 1.504323 0
M  V30 38 C -2.733773 4.916977 0.228027 0
M  V30 39 C -2.658921 3.821549 -0.617585 0
M  V30 40 O -3.162714 3.744114 -1.885667 0
M  V30 41 C -3.745270 4.927384 -2.418404 0
M  V30 42 C -2.020761 2.661893 -0.167951 0
M  V30 43 C -1.449110 2.565287 1.127163 0
M  V30 44 H -4.474491 -3.267313 -2.969982 0
M  V30 45 H -4.272399 -1.632760 -3.823901 0
M  V30 46 H -3.041896 -0.748002 -1.953313 0
M  V30 47 H -3.450862 -3.603275 -0.813853 0
M  V30 48 H -1.013392 -1.927011 -0.991647 0
M  V30 49 H -1.195916 -3.619379 -0.641832 0
M  V30 50 H -1.869610 -4.354679 1.585217 0
M  V30 51 H -1.802454 -3.251113 2.936681 0
M  V30 52 H -4.128904 -3.971885 1.511644 0
M  V30 53 H -4.001446 -2.647817 2.672007 0
M  V30 54 H -4.884183 -1.865592 0.421254 0
M  V30 55 H -3.680004 -0.281609 1.894140 0
M  V30 56 H -3.212970 0.032894 0.230495 0
M  V30 57 H -1.613431 -0.929837 2.537392 0
M  V30 58 H -0.858490 0.237808 -0.184374 0
M  V30 59 H 0.674115 -1.454975 1.131216 0
M  V30 60 H 2.953464 -1.054169 1.479760 0
M  V30 61 H 7.499483 -0.913011 -2.091894 0
M  V30 62 H 0.256408 0.633745 3.390015 0
M  V30 63 H 0.006258 2.731738 4.676512 0
M  V30 64 H -2.226968 5.708633 2.160514 0
M  V30 65 H -3.217035 5.842737 -0.063806 0
M  V30 66 H -4.061103 4.711941 -3.443701 0
M  V30 67 H -4.634861 5.217960 -1.849977 0
M  V30 68 H -3.016831 5.744093 -2.458599 0
M  V30 69 H -1.969461 1.832413 -0.866737 0
M  V30 END ATOM
M  V30 BEGIN BOND
M  V30 1 2 1 2
M  V30 2 1 2 3
M  V30 3 1 3 4
M  V30 4 1 4 5
M  V30 5 1 5 6
M  V30 6 1 6 7
M  V30 7 1 7 8
M  V30 8 1 8 9
M  V30 9 1 9 10
M  V30 10 1 10 11
M  V30 11 1 11 12
M  V30 12 1 12 13
M  V30 13 2 13 14
M  V30 14 1 13 15
M  V30 15 1 15 16
M  V30 16 2 16 17
M  V30 17 1 17 18
M  V30 18 1 17 19
M  V30 19 1 19 20
M  V30 20 1 20 21
M  V30 21 1 20 22
M  V30 22 1 20 23
M  V30 23 2 19 24
M  V30 24 1 24 25
M  V30 25 1 25 26
M  V30 26 1 26 27
M  V30 27 1 26 28
M  V30 28 1 26 29
M  V30 29 2 25 30
M  V30 30 1 30 31
M  V30 31 1 11 32
M  V30 32 2 32 33
M  V30 33 1 33 34
M  V30 34 2 34 35
M  V30 35 1 35 36
M  V30 36 2 36 37
M  V30 37 1 37 38
M  V30 38 2 38 39
M  V30 39 1 39 40
M  V30 40 1 40 41
M  V30 41 1 39 42
M  V30 42 2 42 43
M  V30 43 1 8 3
M  V30 44 1 30 16
M  V30 45 1 43 32
M  V30 46 1 10 5
M  V30 47 1 43 36
M  V30 48 1 1 44
M  V30 49 1 1 45
M  V30 50 1 2 46
M  V30 51 1 3 47 CFG=3
M  V30 52 1 4 48
M  V30 53 1 4 49
M  V30 54 1 6 50
M  V30 55 1 6 51
M  V30 56 1 7 52
M  V30 57 1 7 53
M  V30 58 1 8 54 CFG=3
M  V30 59 1 9 55
M  V30 60 1 9 56
M  V30 61 1 10 57 CFG=1
M  V30 62 1 11 58 CFG=3
M  V30 63 1 12 59
M  V30 64 1 15 60
M  V30 65 1 24 61
M  V30 66 1 33 62
M  V30 67 1 34 63
M  V30 68 1 37 64
M  V30 69 1 38 65
M  V30 70 1 41 66
M  V30 71 1 41 67
M  V30 72 1 41 68
M  V30 73 1 42 69
M  V30 END BOND
M  V30 END CTAB
M  END
>  <catalyst_id>  (1) 
IYCKAJZVTFYHHR_XDIMYVAQSA_NONE

>  <source_smiles>  (1) 
C=C[C@H]1CN2CC[C@H]1C[C@@H]2[C@H](NC(=S)Nc1c(Cl)c(C(F)(F)F)cc(C(F)(F)F)c1Cl)c1ccnc2ccc(OC)cc12

>  <axial_configuration>  (1) 
none

>  <inchikey>  (1) 
IYCKAJZVTFYHHR-XDIMYVAQSA-N

>  <build_source>  (1) 
smiles

>  <rdkit_version>  (1) 
2025.09.6

>  <random_seed>  (1) 
42

>  <generated_at>  (1) 
2026-05-19T12:31:52

$$$$
