catalyst307
     RDKit          3D

  0  0  0  0  0  0  0  0  0  0999 V3000
M  V30 BEGIN CTAB
M  V30 COUNTS 22 21 0 0 0
M  V30 BEGIN ATOM
M  V30 1 C -1.868392 1.179546 0.094163 0
M  V30 2 C -1.317568 -0.175934 -0.350595 0
M  V30 3 C -2.338485 -1.274616 -0.040962 0
M  V30 4 C 0.028762 -0.512208 0.323778 0
M  V30 5 C 1.172927 0.474290 0.042495 0 CFG=2
M  V30 6 N 1.433115 0.577163 -1.413245 0
M  V30 7 C 2.442829 0.034531 0.792217 0
M  V30 8 O 2.501495 -0.463385 1.904867 0
M  V30 9 O 3.583117 0.290130 0.108510 0
M  V30 10 H -2.856362 1.359545 -0.343462 0
M  V30 11 H -1.218683 1.998941 -0.227540 0
M  V30 12 H -1.967930 1.229526 1.183714 0
M  V30 13 H -1.181665 -0.151783 -1.438618 0
M  V30 14 H -2.531859 -1.346750 1.034798 0
M  V30 15 H -1.978510 -2.249145 -0.387489 0
M  V30 16 H -3.290670 -1.074020 -0.543570 0
M  V30 17 H -0.125559 -0.575537 1.409768 0
M  V30 18 H 0.341121 -1.518887 0.011870 0
M  V30 19 H 0.927022 1.472704 0.418850 0
M  V30 20 H 2.309699 1.095803 -1.523675 0
M  V30 21 H 1.646072 -0.354161 -1.771871 0
M  V30 22 H 4.289525 -0.015753 0.715996 0
M  V30 END ATOM
M  V30 BEGIN BOND
M  V30 1 1 1 2
M  V30 2 1 2 3
M  V30 3 1 2 4
M  V30 4 1 4 5
M  V30 5 1 5 6
M  V30 6 1 5 7
M  V30 7 2 7 8
M  V30 8 1 7 9
M  V30 9 1 1 10
M  V30 10 1 1 11
M  V30 11 1 1 12
M  V30 12 1 2 13
M  V30 13 1 3 14
M  V30 14 1 3 15
M  V30 15 1 3 16
M  V30 16 1 4 17
M  V30 17 1 4 18
M  V30 18 1 5 19 CFG=1
M  V30 19 1 6 20
M  V30 20 1 6 21
M  V30 21 1 9 22
M  V30 END BOND
M  V30 END CTAB
M  END
>  <catalyst_id>  (1) 
ROHFNLRQFUQHCH_YFKPBYRVSA_NONE

>  <source_smiles>  (1) 
CC(C)C[C@H](N)C(=O)O

>  <axial_configuration>  (1) 
none

>  <inchikey>  (1) 
ROHFNLRQFUQHCH-YFKPBYRVSA-N

>  <build_source>  (1) 
smiles

>  <rdkit_version>  (1) 
2025.09.6

>  <random_seed>  (1) 
42

>  <generated_at>  (1) 
2026-05-19T12:30:03

$$$$
