catalyst59
     RDKit          3D

  0  0  0  0  0  0  0  0  0  0999 V3000
M  V30 BEGIN CTAB
M  V30 COUNTS 134 145 0 0 0
M  V30 BEGIN ATOM
M  V30 1 C 10.191674 -1.118120 1.077075 0
M  V30 2 C 8.928362 -0.673569 1.102745 0
M  V30 3 C 7.718148 -1.571965 1.023184 0 CFG=1
M  V30 4 C 6.727925 -1.333904 2.180380 0
M  V30 5 N 5.309710 -1.139376 1.639973 0 CFG=2 CHG=1
M  V30 6 C 4.333499 -1.025883 2.864309 0
M  V30 7 C 2.867815 -1.342911 2.623865 0
M  V30 8 C 2.435575 -2.681867 2.764668 0
M  V30 9 C 1.122575 -3.074737 2.490861 0
M  V30 10 C 0.747560 -4.428931 2.595718 0
M  V30 11 C -0.553414 -4.838060 2.317329 0
M  V30 12 C -1.497544 -3.897347 1.936880 0
M  V30 13 C -1.134483 -2.552659 1.837324 0
M  V30 14 C 0.181342 -2.102002 2.107267 0
M  V30 15 C 0.597306 -0.728337 2.019742 0
M  V30 16 C -0.414139 0.328295 1.623037 0
M  V30 17 C -1.229668 0.937685 2.639581 0
M  V30 18 O -1.395139 0.475467 3.823597 0 CHG=-1
M  V30 19 C -1.798773 2.177961 2.268916 0
M  V30 20 C -2.227616 3.110345 3.375397 0
M  V30 21 N -1.072062 3.934893 4.072992 0 CFG=1 CHG=1
M  V30 22 C -1.153980 5.362031 3.553258 0
M  V30 23 C -0.119569 6.237698 4.252078 0
M  V30 24 C 0.797824 5.398411 5.142753 0 CFG=1
M  V30 25 C -0.061085 4.736414 6.227226 0
M  V30 26 C -1.237670 3.922319 5.630756 0 CFG=2
M  V30 27 C -1.425469 2.519061 6.339822 0 CFG=1
M  V30 28 O -0.303294 1.665869 6.131899 0
M  V30 29 C -1.646093 2.692700 7.849478 0
M  V30 30 C -0.597775 2.394913 8.736250 0
M  V30 31 C -0.767194 2.623803 10.085889 0
M  V30 32 N -1.893859 3.131845 10.618709 0
M  V30 33 C -2.920438 3.385617 9.792991 0
M  V30 34 C -4.085867 3.879865 10.359383 0
M  V30 35 C -5.223751 4.161087 9.597041 0
M  V30 36 C -5.206502 3.934453 8.227770 0
M  V30 37 O -6.247513 4.148873 7.363228 0
M  V30 38 C -7.517080 4.403150 7.959217 0
M  V30 39 C -4.037613 3.448329 7.635086 0
M  V30 40 C -2.870310 3.175073 8.393037 0
M  V30 41 C 1.461354 4.312050 4.270156 0 CFG=1
M  V30 42 C 2.579772 3.518778 4.922746 0
M  V30 43 C 3.268174 3.812246 6.034277 0
M  V30 44 C 0.357975 3.381959 3.695808 0
M  V30 45 C -1.818571 2.639236 0.937957 0
M  V30 46 C -1.178502 1.933174 -0.080103 0
M  V30 47 C -1.227384 2.396103 -1.410336 0
M  V30 48 C -0.535369 1.738755 -2.426327 0
M  V30 49 C 0.220113 0.614678 -2.119236 0
M  V30 50 C 0.271668 0.151661 -0.802195 0
M  V30 51 C -0.433046 0.784794 0.253213 0
M  V30 52 C 1.970335 -0.315093 2.263174 0
M  V30 53 O 2.377909 0.897312 2.184601 0 CHG=-1
M  V30 54 C 4.911281 -2.360578 0.795878 0
M  V30 55 C 5.899423 -2.547085 -0.351752 0
M  V30 56 C 6.971278 -1.459527 -0.322689 0 CFG=1
M  V30 57 C 6.271264 -0.101585 -0.440890 0
M  V30 58 C 5.221596 0.128760 0.681588 0 CFG=2
M  V30 59 C 5.399765 1.547690 1.347714 0 CFG=1
M  V30 60 O 6.632844 1.651113 2.066381 0
M  V30 61 C 5.210299 2.693999 0.334953 0
M  V30 62 C 3.882519 2.947072 -0.054745 0
M  V30 63 C 3.607978 3.936723 -0.972662 0
M  V30 64 N 4.554712 4.702636 -1.538438 0
M  V30 65 C 5.828597 4.483923 -1.192438 0
M  V30 66 C 6.777903 5.287380 -1.806906 0
M  V30 67 C 8.143953 5.159111 -1.552048 0
M  V30 68 C 8.581788 4.198327 -0.658788 0
M  V30 69 O 9.879908 3.948575 -0.313690 0
M  V30 70 C 10.873445 4.775915 -0.907309 0
M  V30 71 C 7.636974 3.380732 -0.028904 0
M  V30 72 C 6.239337 3.491265 -0.263857 0
M  V30 73 H 11.019919 -0.418639 1.138884 0
M  V30 74 H 10.435461 -2.170932 0.989432 0
M  V30 75 H 8.762832 0.398565 1.188641 0
M  V30 76 H 8.076381 -2.607856 1.116251 0
M  V30 77 H 6.980395 -0.491985 2.828338 0
M  V30 78 H 6.704449 -2.228373 2.817151 0
M  V30 79 H 4.701382 -1.759288 3.595777 0
M  V30 80 H 4.501089 -0.058015 3.344762 0
M  V30 81 H 3.146778 -3.435950 3.091616 0
M  V30 82 H 1.471866 -5.177699 2.903058 0
M  V30 83 H -0.831473 -5.883691 2.408495 0
M  V30 84 H -2.522502 -4.192729 1.728686 0
M  V30 85 H -1.901013 -1.827150 1.569042 0
M  V30 86 H -2.817410 2.603115 4.137984 0
M  V30 87 H -2.930416 3.848785 2.969593 0
M  V30 88 H -0.986347 5.336147 2.470029 0
M  V30 89 H -2.165531 5.740165 3.744522 0
M  V30 90 H 0.468578 6.782604 3.502938 0
M  V30 91 H -0.628475 7.003035 4.852394 0
M  V30 92 H 1.546960 6.054663 5.599958 0
M  V30 93 H 0.574989 4.114373 6.863376 0
M  V30 94 H -0.474594 5.509038 6.889262 0
M  V30 95 H -2.155906 4.501617 5.793725 0
M  V30 96 H -2.305208 1.986081 5.970381 0
M  V30 97 H -0.536156 1.107467 5.333825 0
M  V30 98 H 0.346343 1.991359 8.376740 0
M  V30 99 H 0.023632 2.400461 10.792955 0
M  V30 100 H -4.115458 4.042377 11.433946 0
M  V30 101 H -6.100390 4.546206 10.109910 0
M  V30 102 H -8.270495 4.414270 7.165572 0
M  V30 103 H -7.526130 5.386284 8.443932 0
M  V30 104 H -7.790608 3.611271 8.665951 0
M  V30 105 H -4.070375 3.248290 6.565351 0
M  V30 106 H 1.937013 4.810632 3.412381 0
M  V30 107 H 2.841282 2.592981 4.401648 0
M  V30 108 H 4.037111 3.131613 6.390672 0
M  V30 109 H 3.091588 4.706005 6.622329 0
M  V30 110 H 0.460987 2.369145 4.062239 0
M  V30 111 H 0.431920 3.396423 2.603542 0
M  V30 112 H -2.312214 3.578346 0.707605 0
M  V30 113 H -1.807981 3.280509 -1.661420 0
M  V30 114 H -0.587676 2.102242 -3.447129 0
M  V30 115 H 0.768663 0.091153 -2.896392 0
M  V30 116 H 0.870178 -0.730924 -0.584811 0
M  V30 117 H 3.905444 -2.201225 0.395322 0
M  V30 118 H 4.921801 -3.237297 1.451940 0
M  V30 119 H 6.364799 -3.536617 -0.277024 0
M  V30 120 H 5.366356 -2.538002 -1.308802 0
M  V30 121 H 7.663629 -1.598546 -1.160897 0
M  V30 122 H 5.761759 -0.031704 -1.411755 0
M  V30 123 H 7.032801 0.681954 -0.455714 0
M  V30 124 H 4.225850 0.071001 0.226094 0
M  V30 125 H 4.649462 1.700164 2.120456 0
M  V30 126 H 6.579448 2.508632 2.533586 0
M  V30 127 H 3.045706 2.378445 0.343995 0
M  V30 128 H 2.586256 4.135960 -1.284903 0
M  V30 129 H 6.441205 6.039931 -2.516531 0
M  V30 130 H 8.827242 5.820937 -2.072724 0
M  V30 131 H 10.881564 4.667551 -1.997761 0
M  V30 132 H 11.848445 4.445762 -0.533841 0
M  V30 133 H 10.741649 5.823467 -0.614148 0
M  V30 134 H 8.030104 2.634137 0.650081 0
M  V30 END ATOM
M  V30 BEGIN BOND
M  V30 1 2 1 2
M  V30 2 1 2 3
M  V30 3 1 3 4
M  V30 4 1 4 5
M  V30 5 1 5 6 CFG=1
M  V30 6 1 6 7
M  V30 7 2 7 8
M  V30 8 1 8 9
M  V30 9 2 9 10
M  V30 10 1 10 11
M  V30 11 2 11 12
M  V30 12 1 12 13
M  V30 13 2 13 14
M  V30 14 1 14 15
M  V30 15 1 15 16
M  V30 16 2 16 17
M  V30 17 1 17 18
M  V30 18 1 17 19
M  V30 19 1 19 20
M  V30 20 1 21 20 CFG=3
M  V30 21 1 21 22
M  V30 22 1 22 23
M  V30 23 1 23 24
M  V30 24 1 24 25
M  V30 25 1 25 26
M  V30 26 1 26 27
M  V30 27 1 27 28
M  V30 28 1 27 29
M  V30 29 2 29 30
M  V30 30 1 30 31
M  V30 31 2 31 32
M  V30 32 1 32 33
M  V30 33 2 33 34
M  V30 34 1 34 35
M  V30 35 2 35 36
M  V30 36 1 36 37
M  V30 37 1 37 38
M  V30 38 1 36 39
M  V30 39 2 39 40
M  V30 40 1 24 41
M  V30 41 1 41 42
M  V30 42 2 42 43
M  V30 43 1 41 44
M  V30 44 2 19 45
M  V30 45 1 45 46
M  V30 46 2 46 47
M  V30 47 1 47 48
M  V30 48 2 48 49
M  V30 49 1 49 50
M  V30 50 2 50 51
M  V30 51 2 15 52
M  V30 52 1 52 53
M  V30 53 1 5 54
M  V30 54 1 54 55
M  V30 55 1 55 56
M  V30 56 1 56 57
M  V30 57 1 57 58
M  V30 58 1 58 59
M  V30 59 1 59 60
M  V30 60 1 59 61
M  V30 61 2 61 62
M  V30 62 1 62 63
M  V30 63 2 63 64
M  V30 64 1 64 65
M  V30 65 2 65 66
M  V30 66 1 66 67
M  V30 67 2 67 68
M  V30 68 1 68 69
M  V30 69 1 69 70
M  V30 70 1 68 71
M  V30 71 2 71 72
M  V30 72 1 56 3
M  V30 73 1 72 61
M  V30 74 1 58 5
M  V30 75 1 72 65
M  V30 76 1 52 7
M  V30 77 1 14 9
M  V30 78 1 51 16
M  V30 79 1 26 21
M  V30 80 1 40 29
M  V30 81 1 51 46
M  V30 82 1 44 21
M  V30 83 1 40 33
M  V30 84 1 1 73
M  V30 85 1 1 74
M  V30 86 1 2 75
M  V30 87 1 3 76 CFG=1
M  V30 88 1 4 77
M  V30 89 1 4 78
M  V30 90 1 6 79
M  V30 91 1 6 80
M  V30 92 1 8 81
M  V30 93 1 10 82
M  V30 94 1 11 83
M  V30 95 1 12 84
M  V30 96 1 13 85
M  V30 97 1 20 86
M  V30 98 1 20 87
M  V30 99 1 22 88
M  V30 100 1 22 89
M  V30 101 1 23 90
M  V30 102 1 23 91
M  V30 103 1 24 92 CFG=1
M  V30 104 1 25 93
M  V30 105 1 25 94
M  V30 106 1 26 95 CFG=3
M  V30 107 1 27 96 CFG=3
M  V30 108 1 28 97
M  V30 109 1 30 98
M  V30 110 1 31 99
M  V30 111 1 34 100
M  V30 112 1 35 101
M  V30 113 1 38 102
M  V30 114 1 38 103
M  V30 115 1 38 104
M  V30 116 1 39 105
M  V30 117 1 41 106 CFG=3
M  V30 118 1 42 107
M  V30 119 1 43 108
M  V30 120 1 43 109
M  V30 121 1 44 110
M  V30 122 1 44 111
M  V30 123 1 45 112
M  V30 124 1 47 113
M  V30 125 1 48 114
M  V30 126 1 49 115
M  V30 127 1 50 116
M  V30 128 1 54 117
M  V30 129 1 54 118
M  V30 130 1 55 119
M  V30 131 1 55 120
M  V30 132 1 56 121 CFG=3
M  V30 133 1 57 122
M  V30 134 1 57 123
M  V30 135 1 58 124 CFG=3
M  V30 136 1 59 125 CFG=1
M  V30 137 1 60 126
M  V30 138 1 62 127
M  V30 139 1 63 128
M  V30 140 1 66 129
M  V30 141 1 67 130
M  V30 142 1 70 131
M  V30 143 1 70 132
M  V30 144 1 70 133
M  V30 145 1 71 134
M  V30 END BOND
M  V30 END CTAB
M  END
>  <catalyst_id>  (1) 
FSDYZSWGRCPKAO_XZPNWRTISA_R

>  <source_smiles>  (1) 
C=C[C@H]1C[N+]2(Cc3cc4ccccc4c(-c4c([O-])c(C[N+]56CC[C@@H](C[C@@H]5[C@@H](O)c5ccnc7ccc(OC)cc57)[C@@H](C=C)C6)cc5ccccc45)c3[O-])CC[C@H]1C[C@@H]2[C@@H](O)c1ccnc2ccc(OC)cc12

>  <axial_configuration>  (1) 
R

>  <inchikey>  (1) 
FSDYZSWGRCPKAO-XZPNWRTISA-N

>  <build_source>  (1) 
smiles+axial_free

>  <final_biaryl_angle_deg>  (1) 
86.89

>  <rdkit_version>  (1) 
2025.09.6

>  <random_seed>  (1) 
42

>  <generated_at>  (1) 
2026-05-19T12:32:04

$$$$
