catalyst25
     RDKit          3D

  0  0  0  0  0  0  0  0  0  0999 V3000
M  V30 BEGIN CTAB
M  V30 COUNTS 24 24 0 0 0
M  V30 BEGIN ATOM
M  V30 1 C 3.221855 -0.409475 -1.616962 0
M  V30 2 S 2.887885 -0.611206 0.120610 0
M  V30 3 O 3.559565 0.461637 0.824909 0
M  V30 4 O 3.104949 -1.989096 0.498316 0
M  V30 5 N 1.281493 -0.273180 0.230934 0
M  V30 6 C 0.236596 -1.074343 -0.254297 0
M  V30 7 O 0.402273 -1.953822 -1.088218 0
M  V30 8 C -1.146462 -0.695879 0.299865 0 CFG=2
M  V30 9 C -1.996698 -0.002161 -0.762974 0
M  V30 10 C -2.279266 1.380404 -0.197518 0
M  V30 11 C -2.170528 1.178066 1.298294 0
M  V30 12 N -1.020369 0.282717 1.419539 0
M  V30 13 H 2.916039 0.592992 -1.922075 0
M  V30 14 H 4.297466 -0.528531 -1.765807 0
M  V30 15 H 2.687159 -1.174033 -2.181513 0
M  V30 16 H 1.018747 0.449947 0.904430 0
M  V30 17 H -1.635021 -1.610588 0.654993 0
M  V30 18 H -2.942234 -0.543913 -0.886609 0
M  V30 19 H -1.516650 0.066117 -1.744631 0
M  V30 20 H -3.260055 1.758745 -0.500041 0
M  V30 21 H -1.517162 2.089137 -0.544644 0
M  V30 22 H -2.005729 2.118194 1.831570 0
M  V30 23 H -3.072863 0.699422 1.696279 0
M  V30 24 H -1.050990 -0.211151 2.314014 0
M  V30 END ATOM
M  V30 BEGIN BOND
M  V30 1 1 1 2
M  V30 2 2 2 3
M  V30 3 2 2 4
M  V30 4 1 2 5
M  V30 5 1 5 6
M  V30 6 2 6 7
M  V30 7 1 6 8
M  V30 8 1 8 9
M  V30 9 1 9 10
M  V30 10 1 10 11
M  V30 11 1 11 12
M  V30 12 1 12 8
M  V30 13 1 1 13
M  V30 14 1 1 14
M  V30 15 1 1 15
M  V30 16 1 5 16
M  V30 17 1 8 17 CFG=1
M  V30 18 1 9 18
M  V30 19 1 9 19
M  V30 20 1 10 20
M  V30 21 1 10 21
M  V30 22 1 11 22
M  V30 23 1 11 23
M  V30 24 1 12 24
M  V30 END BOND
M  V30 END CTAB
M  END
>  <catalyst_id>  (1) 
CEPJXTONNYWYJX_YFKPBYRVSA_NONE

>  <source_smiles>  (1) 
CS(=O)(=O)NC(=O)[C@@H]1CCCN1

>  <axial_configuration>  (1) 
none

>  <inchikey>  (1) 
CEPJXTONNYWYJX-YFKPBYRVSA-N

>  <build_source>  (1) 
smiles

>  <rdkit_version>  (1) 
2025.09.6

>  <random_seed>  (1) 
42

>  <generated_at>  (1) 
2026-05-19T12:29:45

$$$$
