catalyst91
     RDKit          3D

  0  0  0  0  0  0  0  0  0  0999 V3000
M  V30 BEGIN CTAB
M  V30 COUNTS 58 62 0 0 0
M  V30 BEGIN ATOM
M  V30 1 C -5.310858 0.847191 -0.425296 0
M  V30 2 C -4.574173 0.492487 -1.486227 0
M  V30 3 C -3.467967 -0.540804 -1.545865 0 CFG=1
M  V30 4 C -2.213579 0.018760 -2.274377 0
M  V30 5 N -0.948055 -0.366299 -1.597893 0
M  V30 6 C -0.927690 -1.837015 -1.455746 0
M  V30 7 C -2.062520 -2.341352 -0.554267 0
M  V30 8 C -2.999059 -1.167769 -0.207321 0 CFG=1
M  V30 9 C -2.151916 -0.157942 0.591127 0
M  V30 10 C -0.930765 0.295509 -0.249970 0 CFG=1
M  V30 11 C 0.447953 0.170300 0.496888 0 CFG=2
M  V30 12 O 0.531240 -1.064201 1.235905 0
M  V30 13 C 1.871807 -1.448063 1.549835 0
M  V30 14 C 2.359313 -2.490206 0.578143 0
M  V30 15 C 1.874840 -3.804472 0.650771 0
M  V30 16 C 2.309782 -4.771254 -0.256593 0
M  V30 17 C 3.229196 -4.432996 -1.247603 0
M  V30 18 C 3.712021 -3.128269 -1.333817 0
M  V30 19 C 3.278621 -2.159923 -0.426607 0
M  V30 20 C 0.644626 1.367295 1.433431 0
M  V30 21 C 0.228054 1.271238 2.768692 0
M  V30 22 C 0.411512 2.351325 3.606452 0
M  V30 23 N 0.968888 3.512961 3.217048 0
M  V30 24 C 1.357570 3.630991 1.938927 0
M  V30 25 C 1.919639 4.839552 1.548154 0
M  V30 26 C 2.348379 5.070032 0.240176 0
M  V30 27 C 2.204616 4.062955 -0.696720 0
M  V30 28 O 2.599081 4.230736 -1.989668 0
M  V30 29 C 1.646946 2.839750 -0.340657 0
M  V30 30 C 1.217007 2.591718 0.986208 0
M  V30 31 H -5.176309 0.407644 0.556707 0
M  V30 32 H -6.088207 1.599849 -0.522546 0
M  V30 33 H -4.803293 0.976969 -2.435979 0
M  V30 34 H -3.868598 -1.357646 -2.164285 0
M  V30 35 H -2.195827 -0.358875 -3.305462 0
M  V30 36 H -2.253174 1.111744 -2.372768 0
M  V30 37 H -1.012852 -2.298339 -2.448368 0
M  V30 38 H 0.040094 -2.172662 -1.077942 0
M  V30 39 H -2.621021 -3.134426 -1.065368 0
M  V30 40 H -1.650588 -2.778078 0.363425 0
M  V30 41 H -3.841333 -1.531472 0.390655 0
M  V30 42 H -1.851786 -0.621302 1.536790 0
M  V30 43 H -2.750790 0.719672 0.858234 0
M  V30 44 H -1.061290 1.367075 -0.459893 0
M  V30 45 H 1.247946 0.159219 -0.252118 0
M  V30 46 H 2.554021 -0.590438 1.594695 0
M  V30 47 H 1.860279 -1.884677 2.555422 0
M  V30 48 H 1.145896 -4.073953 1.412018 0
M  V30 49 H 1.927442 -5.786463 -0.193069 0
M  V30 50 H 3.565993 -5.184776 -1.956369 0
M  V30 51 H 4.423501 -2.862819 -2.111449 0
M  V30 52 H 3.658426 -1.144438 -0.513818 0
M  V30 53 H -0.228943 0.365546 3.155457 0
M  V30 54 H 0.105896 2.310083 4.648002 0
M  V30 55 H 2.024309 5.629018 2.289521 0
M  V30 56 H 2.780856 6.031274 -0.016677 0
M  V30 57 H 2.949768 5.130359 -2.097376 0
M  V30 58 H 1.545072 2.089679 -1.120568 0
M  V30 END ATOM
M  V30 BEGIN BOND
M  V30 1 2 1 2
M  V30 2 1 2 3
M  V30 3 1 3 4
M  V30 4 1 4 5
M  V30 5 1 5 6
M  V30 6 1 6 7
M  V30 7 1 7 8
M  V30 8 1 8 9
M  V30 9 1 9 10
M  V30 10 1 10 11
M  V30 11 1 11 12
M  V30 12 1 12 13
M  V30 13 1 13 14
M  V30 14 2 14 15
M  V30 15 1 15 16
M  V30 16 2 16 17
M  V30 17 1 17 18
M  V30 18 2 18 19
M  V30 19 1 11 20
M  V30 20 2 20 21
M  V30 21 1 21 22
M  V30 22 2 22 23
M  V30 23 1 23 24
M  V30 24 2 24 25
M  V30 25 1 25 26
M  V30 26 2 26 27
M  V30 27 1 27 28
M  V30 28 1 27 29
M  V30 29 2 29 30
M  V30 30 1 8 3
M  V30 31 1 19 14
M  V30 32 1 30 20
M  V30 33 1 10 5
M  V30 34 1 30 24
M  V30 35 1 1 31
M  V30 36 1 1 32
M  V30 37 1 2 33
M  V30 38 1 3 34 CFG=3
M  V30 39 1 4 35
M  V30 40 1 4 36
M  V30 41 1 6 37
M  V30 42 1 6 38
M  V30 43 1 7 39
M  V30 44 1 7 40
M  V30 45 1 8 41 CFG=1
M  V30 46 1 9 42
M  V30 47 1 9 43
M  V30 48 1 10 44 CFG=3
M  V30 49 1 11 45 CFG=3
M  V30 50 1 13 46
M  V30 51 1 13 47
M  V30 52 1 15 48
M  V30 53 1 16 49
M  V30 54 1 17 50
M  V30 55 1 18 51
M  V30 56 1 19 52
M  V30 57 1 21 53
M  V30 58 1 22 54
M  V30 59 1 25 55
M  V30 60 1 26 56
M  V30 61 1 28 57
M  V30 62 1 29 58
M  V30 END BOND
M  V30 END CTAB
M  END
>  <catalyst_id>  (1) 
HFSYPELWEAKVJH_WJQBNGMASA_NONE

>  <source_smiles>  (1) 
C=C[C@H]1CN2CC[C@H]1C[C@H]2[C@H](OCc1ccccc1)c1ccnc2ccc(O)cc12

>  <axial_configuration>  (1) 
none

>  <inchikey>  (1) 
HFSYPELWEAKVJH-WJQBNGMASA-N

>  <build_source>  (1) 
smiles

>  <rdkit_version>  (1) 
2025.09.6

>  <random_seed>  (1) 
42

>  <generated_at>  (1) 
2026-05-19T12:33:43

$$$$
