catalyst73
     RDKit          3D

  0  0  0  0  0  0  0  0  0  0999 V3000
M  V30 BEGIN CTAB
M  V30 COUNTS 69 74 0 0 0
M  V30 BEGIN ATOM
M  V30 1 C -7.176708 0.785506 -0.660283 0
M  V30 2 C -5.896189 0.575619 -0.328370 0
M  V30 3 C -5.106919 1.471794 0.597006 0 CFG=1
M  V30 4 C -4.507692 0.691882 1.797722 0
M  V30 5 N -3.030955 0.849673 1.887279 0
M  V30 6 C -2.725167 2.289324 2.053017 0
M  V30 7 C -3.286191 3.134763 0.899497 0
M  V30 8 C -3.956604 2.209279 -0.132360 0 CFG=1
M  V30 9 C -2.871540 1.216910 -0.591146 0
M  V30 10 C -2.435670 0.336091 0.602566 0 CFG=1
M  V30 11 C -0.867628 0.144727 0.682571 0 CFG=1
M  V30 12 N -0.531602 -0.374923 2.025731 0
M  V30 13 C 0.642862 -0.198109 2.602644 0
M  V30 14 C 1.941205 0.116104 2.279623 0
M  V30 15 N 2.642180 0.382358 1.194821 0
M  V30 16 C 4.089162 0.613407 1.197145 0
M  V30 17 C 4.887345 -0.694699 1.163945 0
M  V30 18 C 4.836263 -1.379882 -0.181330 0
M  V30 19 C 5.754869 -1.041197 -1.185134 0
M  V30 20 C 5.701131 -1.663533 -2.433150 0
M  V30 21 C 4.728916 -2.627325 -2.689913 0
M  V30 22 C 3.809871 -2.968268 -1.699899 0
M  V30 23 C 3.859458 -2.346007 -0.452187 0
M  V30 24 C 2.362535 0.063335 3.705755 0
M  V30 25 O 3.361409 0.207990 4.367609 0
M  V30 26 C 0.965020 -0.278103 4.051093 0
M  V30 27 O 0.405941 -0.495974 5.097718 0
M  V30 28 C -0.381459 -0.815752 -0.399432 0
M  V30 29 C -0.656507 -2.184942 -0.245568 0
M  V30 30 C -0.285947 -3.063325 -1.240209 0
M  V30 31 N 0.332192 -2.685194 -2.372549 0
M  V30 32 C 0.622370 -1.384752 -2.532715 0
M  V30 33 C 1.280558 -1.018360 -3.698171 0
M  V30 34 C 1.641017 0.302378 -3.962136 0
M  V30 35 C 1.334177 1.289720 -3.040755 0
M  V30 36 C 0.667379 0.950061 -1.863247 0
M  V30 37 C 0.294209 -0.389098 -1.578564 0
M  V30 38 H -7.695702 0.104437 -1.328504 0
M  V30 39 H -7.736870 1.634384 -0.280328 0
M  V30 40 H -5.391052 -0.295842 -0.740923 0
M  V30 41 H -5.785650 2.234740 1.004778 0
M  V30 42 H -4.961033 1.052658 2.730598 0
M  V30 43 H -4.756379 -0.376519 1.755721 0
M  V30 44 H -1.642895 2.441346 2.137708 0
M  V30 45 H -3.138433 2.643038 3.006039 0
M  V30 46 H -4.012030 3.861473 1.283481 0
M  V30 47 H -2.477342 3.705185 0.427330 0
M  V30 48 H -4.330597 2.793023 -0.980913 0
M  V30 49 H -3.245640 0.583848 -1.403789 0
M  V30 50 H -2.028503 1.784981 -0.998891 0
M  V30 51 H -2.866725 -0.664477 0.453268 0
M  V30 52 H -0.397709 1.128116 0.593331 0
M  V30 53 H -1.375260 -0.342419 2.616163 0
M  V30 54 H 2.294660 0.100723 0.276344 0
M  V30 55 H 4.373827 1.196703 2.080704 0
M  V30 56 H 4.337840 1.234296 0.328105 0
M  V30 57 H 4.540500 -1.385250 1.942692 0
M  V30 58 H 5.936396 -0.477770 1.402967 0
M  V30 59 H 6.521261 -0.292060 -1.000455 0
M  V30 60 H 6.418083 -1.397069 -3.204933 0
M  V30 61 H 4.682064 -3.111240 -3.661522 0
M  V30 62 H 3.041491 -3.710228 -1.904487 0
M  V30 63 H 3.125503 -2.616878 0.303688 0
M  V30 64 H -1.156872 -2.561246 0.642233 0
M  V30 65 H -0.486042 -4.127167 -1.151996 0
M  V30 66 H 1.530675 -1.791271 -4.421622 0
M  V30 67 H 2.163888 0.549152 -4.882037 0
M  V30 68 H 1.615480 2.322169 -3.232218 0
M  V30 69 H 0.459776 1.757686 -1.167744 0
M  V30 END ATOM
M  V30 BEGIN BOND
M  V30 1 2 1 2
M  V30 2 1 2 3
M  V30 3 1 3 4
M  V30 4 1 4 5
M  V30 5 1 5 6
M  V30 6 1 6 7
M  V30 7 1 7 8
M  V30 8 1 8 9
M  V30 9 1 9 10
M  V30 10 1 10 11
M  V30 11 1 11 12
M  V30 12 1 12 13
M  V30 13 2 13 14
M  V30 14 1 14 15
M  V30 15 1 15 16
M  V30 16 1 16 17
M  V30 17 1 17 18
M  V30 18 2 18 19
M  V30 19 1 19 20
M  V30 20 2 20 21
M  V30 21 1 21 22
M  V30 22 2 22 23
M  V30 23 1 14 24
M  V30 24 2 24 25
M  V30 25 1 24 26
M  V30 26 2 26 27
M  V30 27 1 11 28
M  V30 28 2 28 29
M  V30 29 1 29 30
M  V30 30 2 30 31
M  V30 31 1 31 32
M  V30 32 2 32 33
M  V30 33 1 33 34
M  V30 34 2 34 35
M  V30 35 1 35 36
M  V30 36 2 36 37
M  V30 37 1 8 3
M  V30 38 1 26 13
M  V30 39 1 37 28
M  V30 40 1 10 5
M  V30 41 1 23 18
M  V30 42 1 37 32
M  V30 43 1 1 38
M  V30 44 1 1 39
M  V30 45 1 2 40
M  V30 46 1 3 41 CFG=1
M  V30 47 1 4 42
M  V30 48 1 4 43
M  V30 49 1 6 44
M  V30 50 1 6 45
M  V30 51 1 7 46
M  V30 52 1 7 47
M  V30 53 1 8 48 CFG=3
M  V30 54 1 9 49
M  V30 55 1 9 50
M  V30 56 1 10 51 CFG=3
M  V30 57 1 11 52 CFG=3
M  V30 58 1 12 53
M  V30 59 1 15 54
M  V30 60 1 16 55
M  V30 61 1 16 56
M  V30 62 1 17 57
M  V30 63 1 17 58
M  V30 64 1 19 59
M  V30 65 1 20 60
M  V30 66 1 21 61
M  V30 67 1 22 62
M  V30 68 1 23 63
M  V30 69 1 29 64
M  V30 70 1 30 65
M  V30 71 1 33 66
M  V30 72 1 34 67
M  V30 73 1 35 68
M  V30 74 1 36 69
M  V30 END BOND
M  V30 END CTAB
M  END
>  <catalyst_id>  (1) 
GAFDKCSLXAOINK_XQVMISGQSA_NONE

>  <source_smiles>  (1) 
C=C[C@H]1CN2CC[C@H]1C[C@H]2[C@@H](Nc1c(NCCc2ccccc2)c(=O)c1=O)c1ccnc2ccccc12

>  <axial_configuration>  (1) 
none

>  <inchikey>  (1) 
GAFDKCSLXAOINK-XQVMISGQSA-N

>  <build_source>  (1) 
smiles

>  <rdkit_version>  (1) 
2025.09.6

>  <random_seed>  (1) 
42

>  <generated_at>  (1) 
2026-05-19T12:40:24

$$$$
