catalyst432
     RDKit          3D

  0  0  0  0  0  0  0  0  0  0999 V3000
M  V30 BEGIN CTAB
M  V30 COUNTS 80 83 0 0 0
M  V30 BEGIN ATOM
M  V30 1 F 3.930134 -3.926009 -0.188043 0
M  V30 2 C 4.684908 -3.716061 -1.302696 0
M  V30 3 F 5.957759 -4.055740 -0.958690 0
M  V30 4 F 4.278944 -4.644917 -2.210209 0
M  V30 5 C 4.568556 -2.307740 -1.832315 0
M  V30 6 C 3.340268 -1.630791 -1.766400 0
M  V30 7 C 3.189906 -0.342394 -2.291369 0
M  V30 8 N 1.922933 0.260412 -2.158981 0
M  V30 9 C 1.335686 1.274622 -2.870588 0
M  V30 10 S 1.724615 1.841609 -4.390989 0
M  V30 11 N 0.250572 1.849509 -2.258475 0
M  V30 12 C -0.011016 1.925865 -0.809660 0 CFG=1
M  V30 13 C 0.668583 3.193355 -0.241447 0
M  V30 14 C 0.818006 3.162776 1.260751 0
M  V30 15 C -0.038889 3.903841 2.084317 0
M  V30 16 C 0.085739 3.838698 3.472844 0
M  V30 17 C 1.070402 3.038998 4.049954 0
M  V30 18 C 1.936785 2.308088 3.240018 0
M  V30 19 C 1.813300 2.370339 1.851821 0
M  V30 20 C -1.529297 1.902723 -0.566817 0
M  V30 21 P -2.168603 0.314819 0.098053 0 CHG=1
M  V30 22 C -1.631348 0.393546 1.823827 0
M  V30 23 C -1.932847 -0.731464 2.782006 0
M  V30 24 C -0.896991 -1.289950 3.548436 0
M  V30 25 C -1.152739 -2.323401 4.451327 0
M  V30 26 C -2.449789 -2.802682 4.610697 0
M  V30 27 C -3.490232 -2.240873 3.875103 0
M  V30 28 C -3.234542 -1.205902 2.972449 0
M  V30 29 C -3.935172 0.369837 -0.009548 0
M  V30 30 C -4.665771 -0.712454 -0.515609 0
M  V30 31 C -6.059167 -0.663623 -0.588106 0
M  V30 32 C -6.741520 0.468402 -0.151168 0
M  V30 33 C -6.030314 1.549925 0.361217 0
M  V30 34 C -4.636975 1.499463 0.432685 0
M  V30 35 C -1.460853 -1.012487 -0.831775 0
M  V30 36 C -1.525580 -0.978435 -2.232868 0
M  V30 37 C -0.973010 -1.999986 -3.007061 0
M  V30 38 C -0.360127 -3.084997 -2.389489 0
M  V30 39 C -0.303130 -3.144794 -1.000171 0
M  V30 40 C -0.847380 -2.114052 -0.229201 0
M  V30 41 C 4.300842 0.293569 -2.846159 0
M  V30 42 C 5.544627 -0.357633 -2.923799 0
M  V30 43 C 6.726438 0.335390 -3.560048 0
M  V30 44 F 6.785855 0.131009 -4.903564 0
M  V30 45 F 7.920292 -0.095579 -3.063409 0
M  V30 46 F 6.718158 1.684882 -3.380302 0
M  V30 47 C 5.662553 -1.666229 -2.429720 0
M  V30 48 Br 0.000000 0.000000 0.000000 0 CHG=-1
M  V30 49 H 2.488824 -2.133465 -1.310067 0
M  V30 50 H 1.239581 -0.288111 -1.646244 0
M  V30 51 H -0.150981 2.594076 -2.820271 0
M  V30 52 H 0.442367 1.055031 -0.330002 0
M  V30 53 H 0.118788 4.090694 -0.554353 0
M  V30 54 H 1.672893 3.306801 -0.672424 0
M  V30 55 H -0.811812 4.535791 1.652835 0
M  V30 56 H -0.584809 4.413868 4.106390 0
M  V30 57 H 1.166205 2.990784 5.131655 0
M  V30 58 H 2.710709 1.691819 3.690210 0
M  V30 59 H 2.498742 1.795426 1.231879 0
M  V30 60 H -1.826477 2.677897 0.145635 0
M  V30 61 H -2.074762 2.109122 -1.495541 0
M  V30 62 H -2.034002 1.313204 2.265544 0
M  V30 63 H -0.545633 0.527656 1.789028 0
M  V30 64 H 0.122223 -0.922608 3.446621 0
M  V30 65 H -0.340198 -2.750612 5.032900 0
M  V30 66 H -2.652187 -3.606103 5.313662 0
M  V30 67 H -4.506624 -2.603224 4.006304 0
M  V30 68 H -4.072230 -0.774960 2.432586 0
M  V30 69 H -4.155869 -1.612461 -0.851435 0
M  V30 70 H -6.610186 -1.512794 -0.984019 0
M  V30 71 H -7.826085 0.505679 -0.207039 0
M  V30 72 H -6.560780 2.432722 0.708404 0
M  V30 73 H -4.102655 2.350376 0.846576 0
M  V30 74 H -2.012913 -0.144329 -2.734263 0
M  V30 75 H -1.028507 -1.948758 -4.091762 0
M  V30 76 H 0.060875 -3.887590 -2.989566 0
M  V30 77 H 0.157445 -4.000115 -0.511035 0
M  V30 78 H -0.798021 -2.202948 0.850437 0
M  V30 79 H 4.235039 1.318243 -3.203589 0
M  V30 80 H 6.620472 -2.184595 -2.500985 0
M  V30 END ATOM
M  V30 BEGIN BOND
M  V30 1 1 1 2
M  V30 2 1 2 3
M  V30 3 1 2 4
M  V30 4 1 2 5
M  V30 5 2 5 6
M  V30 6 1 6 7
M  V30 7 1 7 8
M  V30 8 1 8 9
M  V30 9 2 9 10
M  V30 10 1 9 11
M  V30 11 1 11 12
M  V30 12 1 12 13
M  V30 13 1 13 14
M  V30 14 2 14 15
M  V30 15 1 15 16
M  V30 16 2 16 17
M  V30 17 1 17 18
M  V30 18 2 18 19
M  V30 19 1 12 20
M  V30 20 1 20 21
M  V30 21 1 21 22
M  V30 22 1 22 23
M  V30 23 2 23 24
M  V30 24 1 24 25
M  V30 25 2 25 26
M  V30 26 1 26 27
M  V30 27 2 27 28
M  V30 28 1 21 29
M  V30 29 2 29 30
M  V30 30 1 30 31
M  V30 31 2 31 32
M  V30 32 1 32 33
M  V30 33 2 33 34
M  V30 34 1 21 35
M  V30 35 2 35 36
M  V30 36 1 36 37
M  V30 37 2 37 38
M  V30 38 1 38 39
M  V30 39 2 39 40
M  V30 40 2 7 41
M  V30 41 1 41 42
M  V30 42 1 42 43
M  V30 43 1 43 44
M  V30 44 1 43 45
M  V30 45 1 43 46
M  V30 46 2 42 47
M  V30 47 1 47 5
M  V30 48 1 19 14
M  V30 49 1 28 23
M  V30 50 1 34 29
M  V30 51 1 40 35
M  V30 52 1 6 49
M  V30 53 1 8 50
M  V30 54 1 11 51
M  V30 55 1 12 52 CFG=1
M  V30 56 1 13 53
M  V30 57 1 13 54
M  V30 58 1 15 55
M  V30 59 1 16 56
M  V30 60 1 17 57
M  V30 61 1 18 58
M  V30 62 1 19 59
M  V30 63 1 20 60
M  V30 64 1 20 61
M  V30 65 1 22 62
M  V30 66 1 22 63
M  V30 67 1 24 64
M  V30 68 1 25 65
M  V30 69 1 26 66
M  V30 70 1 27 67
M  V30 71 1 28 68
M  V30 72 1 30 69
M  V30 73 1 31 70
M  V30 74 1 32 71
M  V30 75 1 33 72
M  V30 76 1 34 73
M  V30 77 1 36 74
M  V30 78 1 37 75
M  V30 79 1 38 76
M  V30 80 1 39 77
M  V30 81 1 40 78
M  V30 82 1 41 79
M  V30 83 1 47 80
M  V30 END BOND
M  V30 END CTAB
M  END
>  <catalyst_id>  (1) 
ZOXOQCRHAQLWPA_UCRKPPETSA_NONE

>  <source_smiles>  (1) 
FC(F)(F)c1cc(NC(=S)N[C@@H](Cc2ccccc2)C[P+](Cc2ccccc2)(c2ccccc2)c2ccccc2)cc(C(F)(F)F)c1.[Br-]

>  <axial_configuration>  (1) 
none

>  <inchikey>  (1) 
ZOXOQCRHAQLWPA-UCRKPPETSA-N

>  <build_source>  (1) 
smiles

>  <rdkit_version>  (1) 
2025.09.6

>  <random_seed>  (1) 
42

>  <generated_at>  (1) 
2026-05-19T12:34:20

$$$$
