catalyst397
     RDKit          3D

  0  0  0  0  0  0  0  0  0  0999 V3000
M  V30 BEGIN CTAB
M  V30 COUNTS 152 158 0 0 0
M  V30 BEGIN ATOM
M  V30 1 C 8.627328 -4.225698 0.270977 0
M  V30 2 C 8.782996 -2.731209 0.064005 0
M  V30 3 C 8.247817 -2.172648 -1.264799 0
M  V30 4 N 6.768142 -2.080847 -1.338452 0
M  V30 5 C 6.211896 -3.327025 -1.902500 0
M  V30 6 C 4.783093 -3.606197 -1.502360 0
M  V30 7 C 3.762036 -3.634002 -2.462246 0
M  V30 8 C 2.431534 -3.816310 -2.083097 0
M  V30 9 C 2.131165 -4.090071 -0.744381 0
M  V30 10 C 3.140446 -4.098881 0.233397 0
M  V30 11 C 2.818968 -4.390236 1.678746 0
M  V30 12 F 3.123754 -5.666842 2.036392 0
M  V30 13 F 3.495216 -3.582980 2.543791 0
M  V30 14 F 1.500467 -4.220400 1.978872 0
M  V30 15 C 4.461816 -3.843549 -0.156916 0
M  V30 16 N 1.454013 -3.742126 -3.097889 0
M  V30 17 C 0.102879 -3.487353 -3.017232 0
M  V30 18 S -0.803532 -3.863390 -4.369052 0
M  V30 19 N -0.297050 -2.841385 -1.872860 0
M  V30 20 C -1.563574 -2.611301 -1.302181 0
M  V30 21 C -1.627196 -1.631390 -0.302876 0
M  V30 22 C -2.829301 -1.327057 0.357004 0
M  V30 23 C -3.983674 -2.029290 -0.013120 0
M  V30 24 C -3.940278 -3.033880 -0.991326 0
M  V30 25 C -5.185355 -3.817461 -1.331700 0
M  V30 26 F -6.330493 -3.088783 -1.195380 0
M  V30 27 F -5.197307 -4.285493 -2.610480 0
M  V30 28 F -5.344070 -4.910305 -0.533913 0
M  V30 29 C -2.718095 -3.331138 -1.617104 0
M  V30 30 C -2.834233 -0.207075 1.386988 0
M  V30 31 N -4.031066 -0.171993 2.258151 0
M  V30 32 C -3.868360 -1.180576 3.336301 0
M  V30 33 C -5.106867 -1.484287 4.192277 0
M  V30 34 C -6.263745 -2.067890 3.397330 0
M  V30 35 C -4.335750 1.196665 2.771846 0 CFG=1
M  V30 36 C -3.205150 1.768585 3.673974 0
M  V30 37 C -3.216510 3.287292 3.838427 0
M  V30 38 C -4.621740 3.851250 3.785119 0
M  V30 39 C -5.323908 3.547673 2.462467 0
M  V30 40 C -4.791094 2.290833 1.709497 0 CFG=2
M  V30 41 N -5.818428 1.992475 0.674152 0
M  V30 42 C -6.894552 1.108202 1.144314 0
M  V30 43 C -8.225369 1.411702 0.442011 0
M  V30 44 C -9.347488 0.538190 0.987220 0
M  V30 45 C -5.265508 1.528046 -0.604053 0
M  V30 46 C -4.573427 2.619451 -1.398245 0
M  V30 47 C -3.230867 2.485003 -1.781097 0
M  V30 48 C -2.617241 3.450655 -2.583039 0
M  V30 49 C -3.366306 4.537384 -3.043621 0
M  V30 50 C -4.707142 4.703325 -2.657397 0
M  V30 51 C -5.482870 5.919814 -3.102552 0
M  V30 52 F -5.164577 6.313814 -4.367071 0
M  V30 53 F -6.832932 5.737461 -3.097774 0
M  V30 54 F -5.248868 7.000296 -2.308130 0
M  V30 55 C -5.297070 3.742674 -1.825237 0
M  V30 56 N -1.281674 3.346665 -3.015126 0
M  V30 57 C -0.204116 2.689227 -2.459143 0
M  V30 58 S 1.060328 2.359457 -3.493445 0
M  V30 59 N -0.283846 2.519012 -1.094479 0
M  V30 60 C 0.606477 1.987201 -0.135212 0
M  V30 61 C 1.659347 1.100116 -0.387831 0
M  V30 62 C 2.494048 0.647755 0.654292 0
M  V30 63 C 2.236832 1.086857 1.964033 0
M  V30 64 C 1.182331 1.961616 2.243842 0
M  V30 65 C 0.940595 2.426088 3.659802 0
M  V30 66 F 2.041835 2.997654 4.220496 0
M  V30 67 F 0.581186 1.404165 4.485867 0
M  V30 68 F -0.053065 3.352401 3.762633 0
M  V30 69 C 0.368928 2.392809 1.188099 0
M  V30 70 C 3.611758 -0.353964 0.420724 0
M  V30 71 N 4.827877 0.096108 -0.254314 0
M  V30 72 C 5.450690 1.328815 0.213997 0
M  V30 73 C 5.954280 1.292279 1.663806 0
M  V30 74 C 6.989354 0.207634 1.911253 0
M  V30 75 C 4.938566 -0.223561 -1.690345 0 CFG=1
M  V30 76 C 4.542371 0.948423 -2.625609 0
M  V30 77 C 5.688136 1.507370 -3.463781 0
M  V30 78 C 6.376211 0.433675 -4.294587 0
M  V30 79 C 6.483064 -0.923055 -3.598290 0
M  V30 80 C 6.360093 -0.823122 -2.062920 0 CFG=2
M  V30 81 H 7.586396 -4.506971 0.449322 0
M  V30 82 H 9.198375 -4.543532 1.150686 0
M  V30 83 H 9.004826 -4.785732 -0.590729 0
M  V30 84 H 9.855049 -2.499476 0.114745 0
M  V30 85 H 8.320775 -2.202912 0.904740 0
M  V30 86 H 8.689969 -1.171053 -1.340519 0
M  V30 87 H 8.658772 -2.731038 -2.115282 0
M  V30 88 H 6.774752 -4.198385 -1.551138 0
M  V30 89 H 6.333211 -3.381175 -2.991293 0
M  V30 90 H 4.010782 -3.441725 -3.505435 0
M  V30 91 H 1.113940 -4.329828 -0.440043 0
M  V30 92 H 5.253635 -3.814016 0.591897 0
M  V30 93 H 1.770925 -3.888740 -4.049447 0
M  V30 94 H 0.453587 -2.297961 -1.463297 0
M  V30 95 H -0.731125 -1.074247 -0.034864 0
M  V30 96 H -4.932320 -1.802902 0.471595 0
M  V30 97 H -2.698161 -4.147749 -2.332303 0
M  V30 98 H -2.742885 0.723194 0.817621 0
M  V30 99 H -1.921243 -0.286566 1.993011 0
M  V30 100 H -3.565826 -2.139497 2.893394 0
M  V30 101 H -3.046228 -0.898935 4.007082 0
M  V30 102 H -4.814348 -2.220203 4.953602 0
M  V30 103 H -5.439038 -0.597974 4.741702 0
M  V30 104 H -7.064345 -2.388127 4.072401 0
M  V30 105 H -5.945730 -2.939049 2.813658 0
M  V30 106 H -6.687788 -1.330136 2.713534 0
M  V30 107 H -5.210618 1.086754 3.423782 0
M  V30 108 H -3.279150 1.300842 4.667779 0
M  V30 109 H -2.211406 1.495853 3.299186 0
M  V30 110 H -2.735593 3.553752 4.786926 0
M  V30 111 H -2.613428 3.745002 3.045108 0
M  V30 112 H -4.602865 4.935916 3.954726 0
M  V30 113 H -5.201985 3.425290 4.613211 0
M  V30 114 H -5.241906 4.416932 1.795385 0
M  V30 115 H -6.393670 3.444987 2.684768 0
M  V30 116 H -3.877062 2.625521 1.197327 0
M  V30 117 H -6.625457 0.057146 0.994547 0
M  V30 118 H -7.070358 1.249929 2.216160 0
M  V30 119 H -8.491237 2.464994 0.589438 0
M  V30 120 H -8.150962 1.245817 -0.637595 0
M  V30 121 H -10.288767 0.770742 0.478953 0
M  V30 122 H -9.129184 -0.523599 0.832787 0
M  V30 123 H -9.490003 0.705955 2.058815 0
M  V30 124 H -6.057296 1.153038 -1.264556 0
M  V30 125 H -4.600542 0.677952 -0.463730 0
M  V30 126 H -2.690493 1.584544 -1.498629 0
M  V30 127 H -2.902993 5.288146 -3.683365 0
M  V30 128 H -6.339980 3.849249 -1.520270 0
M  V30 129 H -1.062220 3.787528 -3.904191 0
M  V30 130 H -1.013724 3.101281 -0.701177 0
M  V30 131 H 1.840278 0.712442 -1.383321 0
M  V30 132 H 2.863931 0.734134 2.784799 0
M  V30 133 H -0.447000 3.080300 1.409300 0
M  V30 134 H 3.915199 -0.771004 1.392115 0
M  V30 135 H 3.162946 -1.213378 -0.090465 0
M  V30 136 H 6.320907 1.570101 -0.407990 0
M  V30 137 H 4.764830 2.176926 0.098994 0
M  V30 138 H 6.408125 2.266463 1.890234 0
M  V30 139 H 5.126585 1.169398 2.368608 0
M  V30 140 H 6.563418 -0.788107 1.759041 0
M  V30 141 H 7.846377 0.326011 1.240581 0
M  V30 142 H 7.356623 0.260553 2.940457 0
M  V30 143 H 4.210281 -1.007361 -1.914864 0
M  V30 144 H 4.100089 1.781598 -2.072279 0
M  V30 145 H 3.758067 0.592932 -3.305789 0
M  V30 146 H 5.314067 2.294599 -4.126400 0
M  V30 147 H 6.413469 1.991320 -2.799475 0
M  V30 148 H 5.850558 0.294633 -5.249386 0
M  V30 149 H 7.381996 0.791993 -4.551040 0
M  V30 150 H 5.674692 -1.559245 -3.983714 0
M  V30 151 H 7.425287 -1.398179 -3.897874 0
M  V30 152 H 7.070032 -0.048308 -1.746312 0
M  V30 END ATOM
M  V30 BEGIN BOND
M  V30 1 1 1 2
M  V30 2 1 2 3
M  V30 3 1 3 4
M  V30 4 1 4 5
M  V30 5 1 5 6
M  V30 6 1 6 7
M  V30 7 2 7 8
M  V30 8 1 8 9
M  V30 9 2 9 10
M  V30 10 1 10 11
M  V30 11 1 11 12
M  V30 12 1 11 13
M  V30 13 1 11 14
M  V30 14 1 10 15
M  V30 15 1 8 16
M  V30 16 1 16 17
M  V30 17 2 17 18
M  V30 18 1 17 19
M  V30 19 1 19 20
M  V30 20 1 20 21
M  V30 21 2 21 22
M  V30 22 1 22 23
M  V30 23 2 23 24
M  V30 24 1 24 25
M  V30 25 1 25 26
M  V30 26 1 25 27
M  V30 27 1 25 28
M  V30 28 1 24 29
M  V30 29 1 22 30
M  V30 30 1 30 31
M  V30 31 1 31 32
M  V30 32 1 32 33
M  V30 33 1 33 34
M  V30 34 1 31 35
M  V30 35 1 35 36
M  V30 36 1 36 37
M  V30 37 1 37 38
M  V30 38 1 38 39
M  V30 39 1 39 40
M  V30 40 1 40 41
M  V30 41 1 41 42
M  V30 42 1 42 43
M  V30 43 1 43 44
M  V30 44 1 41 45
M  V30 45 1 45 46
M  V30 46 1 46 47
M  V30 47 2 47 48
M  V30 48 1 48 49
M  V30 49 2 49 50
M  V30 50 1 50 51
M  V30 51 1 51 52
M  V30 52 1 51 53
M  V30 53 1 51 54
M  V30 54 1 50 55
M  V30 55 1 48 56
M  V30 56 1 56 57
M  V30 57 2 57 58
M  V30 58 1 57 59
M  V30 59 1 59 60
M  V30 60 1 60 61
M  V30 61 2 61 62
M  V30 62 1 62 63
M  V30 63 2 63 64
M  V30 64 1 64 65
M  V30 65 1 65 66
M  V30 66 1 65 67
M  V30 67 1 65 68
M  V30 68 1 64 69
M  V30 69 1 62 70
M  V30 70 1 70 71
M  V30 71 1 71 72
M  V30 72 1 72 73
M  V30 73 1 73 74
M  V30 74 1 71 75
M  V30 75 1 75 76
M  V30 76 1 76 77
M  V30 77 1 77 78
M  V30 78 1 78 79
M  V30 79 1 79 80
M  V30 80 1 80 4
M  V30 81 2 15 6
M  V30 82 2 29 20
M  V30 83 1 40 35
M  V30 84 2 55 46
M  V30 85 2 69 60
M  V30 86 1 80 75
M  V30 87 1 1 81
M  V30 88 1 1 82
M  V30 89 1 1 83
M  V30 90 1 2 84
M  V30 91 1 2 85
M  V30 92 1 3 86
M  V30 93 1 3 87
M  V30 94 1 5 88
M  V30 95 1 5 89
M  V30 96 1 7 90
M  V30 97 1 9 91
M  V30 98 1 15 92
M  V30 99 1 16 93
M  V30 100 1 19 94
M  V30 101 1 21 95
M  V30 102 1 23 96
M  V30 103 1 29 97
M  V30 104 1 30 98
M  V30 105 1 30 99
M  V30 106 1 32 100
M  V30 107 1 32 101
M  V30 108 1 33 102
M  V30 109 1 33 103
M  V30 110 1 34 104
M  V30 111 1 34 105
M  V30 112 1 34 106
M  V30 113 1 35 107 CFG=1
M  V30 114 1 36 108
M  V30 115 1 36 109
M  V30 116 1 37 110
M  V30 117 1 37 111
M  V30 118 1 38 112
M  V30 119 1 38 113
M  V30 120 1 39 114
M  V30 121 1 39 115
M  V30 122 1 40 116 CFG=3
M  V30 123 1 42 117
M  V30 124 1 42 118
M  V30 125 1 43 119
M  V30 126 1 43 120
M  V30 127 1 44 121
M  V30 128 1 44 122
M  V30 129 1 44 123
M  V30 130 1 45 124
M  V30 131 1 45 125
M  V30 132 1 47 126
M  V30 133 1 49 127
M  V30 134 1 55 128
M  V30 135 1 56 129
M  V30 136 1 59 130
M  V30 137 1 61 131
M  V30 138 1 63 132
M  V30 139 1 69 133
M  V30 140 1 70 134
M  V30 141 1 70 135
M  V30 142 1 72 136
M  V30 143 1 72 137
M  V30 144 1 73 138
M  V30 145 1 73 139
M  V30 146 1 74 140
M  V30 147 1 74 141
M  V30 148 1 74 142
M  V30 149 1 75 143 CFG=3
M  V30 150 1 76 144
M  V30 151 1 76 145
M  V30 152 1 77 146
M  V30 153 1 77 147
M  V30 154 1 78 148
M  V30 155 1 78 149
M  V30 156 1 79 150
M  V30 157 1 79 151
M  V30 158 1 80 152 CFG=1
M  V30 END BOND
M  V30 END CTAB
M  END
>  <catalyst_id>  (1) 
XHZJBTORAKALJV_CFOCFGCLSA_NONE

>  <source_smiles>  (1) 
CCCN1Cc2cc(cc(C(F)(F)F)c2)NC(=S)Nc2cc(cc(C(F)(F)F)c2)CN(CCC)[C@H]2CCCC[C@@H]2N(CCC)Cc2cc(cc(C(F)(F)F)c2)NC(=S)Nc2cc(cc(C(F)(F)F)c2)CN(CCC)[C@H]2CCCC[C@@H]21

>  <axial_configuration>  (1) 
none

>  <inchikey>  (1) 
XHZJBTORAKALJV-CFOCFGCLSA-N

>  <build_source>  (1) 
smiles

>  <rdkit_version>  (1) 
2025.09.6

>  <random_seed>  (1) 
42

>  <generated_at>  (1) 
2026-05-19T12:37:29

$$$$
