catalyst385
     RDKit          3D

  0  0  0  0  0  0  0  0  0  0999 V3000
M  V30 BEGIN CTAB
M  V30 COUNTS 75 79 0 0 0
M  V30 BEGIN ATOM
M  V30 1 C -3.000311 -6.259866 0.076143 0
M  V30 2 C -2.348804 -5.089667 0.072220 0
M  V30 3 C -0.904934 -4.929910 -0.342663 0 CFG=1
M  V30 4 C -0.734971 -3.888554 -1.481841 0
M  V30 5 N 0.196830 -2.791569 -1.101715 0
M  V30 6 C 1.521911 -3.389658 -0.813100 0
M  V30 7 C 1.447618 -4.450813 0.295214 0
M  V30 8 C 0.009211 -4.519141 0.839345 0 CFG=1
M  V30 9 C -0.333168 -3.100274 1.331654 0
M  V30 10 C -0.358911 -2.129000 0.128337 0 CFG=1
M  V30 11 C 0.342220 -0.756986 0.441111 0 CFG=1
M  V30 12 N 0.673420 -0.061606 -0.814834 0
M  V30 13 C 1.594654 0.936227 -0.994808 0
M  V30 14 S 2.312769 1.026352 -2.498740 0
M  V30 15 N 1.765626 1.764702 0.083906 0
M  V30 16 C 2.781733 2.691388 0.392666 0
M  V30 17 C 2.464384 3.698999 1.312264 0
M  V30 18 C 3.414067 4.659962 1.697279 0
M  V30 19 C 3.039679 5.735708 2.688317 0
M  V30 20 F 3.004194 5.265657 3.965351 0
M  V30 21 F 3.906892 6.785280 2.698335 0
M  V30 22 F 1.810269 6.268710 2.449352 0
M  V30 23 C 4.710728 4.579461 1.169805 0
M  V30 24 C 5.059293 3.555247 0.276094 0
M  V30 25 C 6.455250 3.463648 -0.294143 0
M  V30 26 F 6.899648 2.181043 -0.405079 0
M  V30 27 F 7.383462 4.110758 0.465587 0
M  V30 28 F 6.546235 4.006145 -1.538079 0
M  V30 29 C 4.083153 2.617154 -0.104216 0
M  V30 30 C -0.483285 0.091017 1.405791 0
M  V30 31 C -0.013898 0.197299 2.724707 0
M  V30 32 C -0.722545 0.960053 3.628148 0
M  V30 33 N -1.852896 1.617651 3.317502 0
M  V30 34 C -2.324367 1.523434 2.065182 0
M  V30 35 C -3.496999 2.199419 1.768330 0
M  V30 36 C -4.061369 2.168695 0.492282 0
M  V30 37 C -3.444319 1.457638 -0.527626 0
M  V30 38 O -4.089434 1.500041 -1.729430 0
M  V30 39 C -3.399601 1.058264 -2.905135 0
M  V30 40 C -3.700980 -0.416511 -3.156949 0
M  V30 41 C -3.922918 1.903564 -4.064379 0
M  V30 42 C -2.270210 0.762596 -0.243454 0
M  V30 43 C -1.682895 0.774976 1.050359 0
M  V30 44 H -4.041627 -6.314326 0.380412 0
M  V30 45 H -2.518537 -7.186775 -0.219542 0
M  V30 46 H -2.890304 -4.195747 0.376576 0
M  V30 47 H -0.543384 -5.896148 -0.723014 0
M  V30 48 H -1.696999 -3.457210 -1.787998 0
M  V30 49 H -0.348770 -4.388401 -2.380130 0
M  V30 50 H 2.239976 -2.608739 -0.537098 0
M  V30 51 H 1.926864 -3.838798 -1.728830 0
M  V30 52 H 1.749925 -5.428529 -0.098429 0
M  V30 53 H 2.146277 -4.197473 1.101544 0
M  V30 54 H -0.053076 -5.240052 1.662155 0
M  V30 55 H -1.306019 -3.091901 1.836547 0
M  V30 56 H 0.409828 -2.793891 2.077877 0
M  V30 57 H -1.411279 -1.909659 -0.094511 0
M  V30 58 H 1.318535 -0.963415 0.900691 0
M  V30 59 H 0.651236 -0.701270 -1.609137 0
M  V30 60 H 0.912367 1.883403 0.615243 0
M  V30 61 H 1.458462 3.760663 1.728654 0
M  V30 62 H 5.460501 5.316293 1.463674 0
M  V30 63 H 4.381780 1.811306 -0.769823 0
M  V30 64 H 0.894738 -0.301445 3.049243 0
M  V30 65 H -0.391177 1.067911 4.657334 0
M  V30 66 H -3.989973 2.769422 2.552790 0
M  V30 67 H -4.983434 2.710676 0.297371 0
M  V30 68 H -2.319841 1.235249 -2.836833 0
M  V30 69 H -3.350465 -1.041859 -2.330045 0
M  V30 70 H -4.780584 -0.586024 -3.237602 0
M  V30 71 H -3.222452 -0.765441 -4.077272 0
M  V30 72 H -3.445213 1.624075 -5.008447 0
M  V30 73 H -3.730214 2.965708 -3.877297 0
M  V30 74 H -5.007949 1.795665 -4.173257 0
M  V30 75 H -1.795624 0.189195 -1.029932 0
M  V30 END ATOM
M  V30 BEGIN BOND
M  V30 1 2 1 2
M  V30 2 1 2 3
M  V30 3 1 3 4
M  V30 4 1 4 5
M  V30 5 1 5 6
M  V30 6 1 6 7
M  V30 7 1 7 8
M  V30 8 1 8 9
M  V30 9 1 9 10
M  V30 10 1 10 11
M  V30 11 1 11 12
M  V30 12 1 12 13
M  V30 13 2 13 14
M  V30 14 1 13 15
M  V30 15 1 15 16
M  V30 16 2 16 17
M  V30 17 1 17 18
M  V30 18 1 18 19
M  V30 19 1 19 20
M  V30 20 1 19 21
M  V30 21 1 19 22
M  V30 22 2 18 23
M  V30 23 1 23 24
M  V30 24 1 24 25
M  V30 25 1 25 26
M  V30 26 1 25 27
M  V30 27 1 25 28
M  V30 28 2 24 29
M  V30 29 1 11 30
M  V30 30 2 30 31
M  V30 31 1 31 32
M  V30 32 2 32 33
M  V30 33 1 33 34
M  V30 34 2 34 35
M  V30 35 1 35 36
M  V30 36 2 36 37
M  V30 37 1 37 38
M  V30 38 1 38 39
M  V30 39 1 39 40
M  V30 40 1 39 41
M  V30 41 1 37 42
M  V30 42 2 42 43
M  V30 43 1 8 3
M  V30 44 1 29 16
M  V30 45 1 43 30
M  V30 46 1 10 5
M  V30 47 1 43 34
M  V30 48 1 1 44
M  V30 49 1 1 45
M  V30 50 1 2 46
M  V30 51 1 3 47 CFG=3
M  V30 52 1 4 48
M  V30 53 1 4 49
M  V30 54 1 6 50
M  V30 55 1 6 51
M  V30 56 1 7 52
M  V30 57 1 7 53
M  V30 58 1 8 54 CFG=1
M  V30 59 1 9 55
M  V30 60 1 9 56
M  V30 61 1 10 57 CFG=3
M  V30 62 1 11 58 CFG=1
M  V30 63 1 12 59
M  V30 64 1 15 60
M  V30 65 1 17 61
M  V30 66 1 23 62
M  V30 67 1 29 63
M  V30 68 1 31 64
M  V30 69 1 32 65
M  V30 70 1 35 66
M  V30 71 1 36 67
M  V30 72 1 39 68
M  V30 73 1 40 69
M  V30 74 1 40 70
M  V30 75 1 40 71
M  V30 76 1 41 72
M  V30 77 1 41 73
M  V30 78 1 41 74
M  V30 79 1 42 75
M  V30 END BOND
M  V30 END CTAB
M  END
>  <catalyst_id>  (1) 
WTHZTMWFWUQJPI_HVYZTVOGSA_NONE

>  <source_smiles>  (1) 
C=C[C@H]1CN2CC[C@H]1C[C@H]2[C@@H](NC(=S)Nc1cc(C(F)(F)F)cc(C(F)(F)F)c1)c1ccnc2ccc(OC(C)C)cc12

>  <axial_configuration>  (1) 
none

>  <inchikey>  (1) 
WTHZTMWFWUQJPI-HVYZTVOGSA-N

>  <build_source>  (1) 
smiles

>  <rdkit_version>  (1) 
2025.09.6

>  <random_seed>  (1) 
42

>  <generated_at>  (1) 
2026-05-19T12:33:00

$$$$
