catalyst339
     RDKit          3D

  0  0  0  0  0  0  0  0  0  0999 V3000
M  V30 BEGIN CTAB
M  V30 COUNTS 114 120 0 0 0
M  V30 BEGIN ATOM
M  V30 1 C 6.639014 2.987600 -1.760862 0
M  V30 2 C 5.836671 2.153166 -1.087149 0
M  V30 3 C 6.234995 0.759618 -0.659153 0 CFG=1
M  V30 4 C 6.067347 0.539829 0.872246 0
M  V30 5 N 5.120217 -0.574709 1.173416 0
M  V30 6 C 5.708706 -1.809430 0.600071 0
M  V30 7 C 5.966235 -1.693670 -0.909470 0
M  V30 8 C 5.434995 -0.339606 -1.406377 0 CFG=1
M  V30 9 C 3.942423 -0.302697 -1.021705 0
M  V30 10 C 3.815211 -0.225455 0.517627 0 CFG=1
M  V30 11 C 2.506417 -0.877297 1.115612 0 CFG=1
M  V30 12 N 1.279229 -0.414933 0.444668 0
M  V30 13 C 0.841761 0.889135 0.531136 0
M  V30 14 O 1.504150 1.801058 1.026214 0
M  V30 15 C -0.556161 1.147664 -0.075098 0 CFG=2
M  V30 16 N -0.806025 2.600846 0.026158 0
M  V30 17 C -1.602395 3.379500 -0.798556 0
M  V30 18 S -2.546530 2.757390 -2.028296 0
M  V30 19 N -1.528066 4.701912 -0.379646 0
M  V30 20 C -1.936646 5.902942 -0.998446 0
M  V30 21 C -2.099299 6.062834 -2.374881 0
M  V30 22 C -2.486514 7.298932 -2.923459 0
M  V30 23 C -2.686266 7.433908 -4.414892 0
M  V30 24 F -3.911331 6.998401 -4.815126 0
M  V30 25 F -1.776378 6.727543 -5.140635 0
M  V30 26 F -2.586727 8.721522 -4.849851 0
M  V30 27 C -2.706608 8.387278 -2.066274 0
M  V30 28 C -2.511069 8.260575 -0.683893 0
M  V30 29 C -2.751996 9.431107 0.238859 0
M  V30 30 F -1.993605 9.381962 1.369158 0
M  V30 31 F -2.477513 10.631577 -0.341768 0
M  V30 32 F -4.044918 9.500917 0.656311 0
M  V30 33 C -2.123606 7.013541 -0.165080 0
M  V30 34 C -1.659745 0.303459 0.612535 0 CFG=2
M  V30 35 C -1.650031 0.455811 2.136932 0
M  V30 36 O -1.457764 -1.081965 0.284475 0
M  V30 37 Si -2.715933 -2.074167 -0.218181 0 VAL=4
M  V30 38 C -2.551006 -3.686695 0.788940 0
M  V30 39 C -3.549026 -4.678263 0.743816 0
M  V30 40 C -3.409835 -5.866290 1.465430 0
M  V30 41 C -2.274115 -6.084859 2.240337 0
M  V30 42 C -1.279613 -5.113038 2.302088 0
M  V30 43 C -1.417314 -3.920922 1.587688 0
M  V30 44 C -4.384037 -1.347518 0.281923 0
M  V30 45 C -5.143323 -0.558638 -0.601411 0
M  V30 46 C -6.367840 -0.007106 -0.211221 0
M  V30 47 C -6.859732 -0.228487 1.070679 0
M  V30 48 C -6.125374 -0.997493 1.966450 0
M  V30 49 C -4.900110 -1.547354 1.578882 0
M  V30 50 C -2.511206 -2.534862 -2.173880 0
M  V30 51 C -2.238964 -1.260397 -3.001739 0
M  V30 52 C -1.297472 -3.481377 -2.348240 0
M  V30 53 C -3.770301 -3.239701 -2.718916 0
M  V30 54 C 2.498421 -2.402798 1.210437 0
M  V30 55 C 2.129049 -3.164751 0.090533 0
M  V30 56 C 2.084686 -4.539851 0.195626 0
M  V30 57 N 2.384527 -5.211321 1.320934 0
M  V30 58 C 2.758590 -4.507252 2.398695 0
M  V30 59 C 3.073635 -5.221203 3.546535 0
M  V30 60 C 3.488160 -4.591401 4.719388 0
M  V30 61 C 3.599933 -3.211163 4.747760 0
M  V30 62 C 3.285726 -2.470435 3.607587 0
M  V30 63 C 2.845280 -3.093231 2.411479 0
M  V30 64 H 6.298634 3.980908 -2.038119 0
M  V30 65 H 7.645770 2.705046 -2.052482 0
M  V30 66 H 4.838195 2.495928 -0.820162 0
M  V30 67 H 7.299187 0.615697 -0.895340 0
M  V30 68 H 5.732986 1.453115 1.381730 0
M  V30 69 H 7.044045 0.309536 1.318872 0
M  V30 70 H 6.652858 -2.030309 1.114943 0
M  V30 71 H 5.082614 -2.680838 0.798557 0
M  V30 72 H 7.039137 -1.780832 -1.118351 0
M  V30 73 H 5.466886 -2.514673 -1.437776 0
M  V30 74 H 5.557792 -0.256633 -2.491970 0
M  V30 75 H 3.454145 0.566268 -1.478540 0
M  V30 76 H 3.447772 -1.188409 -1.429721 0
M  V30 77 H 3.674503 0.841291 0.737746 0
M  V30 78 H 2.397233 -0.473559 2.128256 0
M  V30 79 H 0.529733 -1.097662 0.345284 0
M  V30 80 H -0.478878 0.882070 -1.135442 0
M  V30 81 H -0.054942 3.091298 0.507118 0
M  V30 82 H -1.287036 4.787929 0.600373 0
M  V30 83 H -1.894806 5.246035 -3.061766 0
M  V30 84 H -3.020697 9.346757 -2.481309 0
M  V30 85 H -1.986137 6.915586 0.911550 0
M  V30 86 H -2.626712 0.660392 0.244669 0
M  V30 87 H -0.741319 0.033999 2.578990 0
M  V30 88 H -2.484483 -0.093294 2.583842 0
M  V30 89 H -1.736798 1.504366 2.436636 0
M  V30 90 H -4.452987 -4.537848 0.153131 0
M  V30 91 H -4.189179 -6.622531 1.420162 0
M  V30 92 H -2.162164 -7.011921 2.795788 0
M  V30 93 H -0.388172 -5.283869 2.901149 0
M  V30 94 H -0.620783 -3.184127 1.665003 0
M  V30 95 H -4.798694 -0.343942 -1.609654 0
M  V30 96 H -6.934426 0.600904 -0.912362 0
M  V30 97 H -7.811228 0.200945 1.371720 0
M  V30 98 H -6.502128 -1.170477 2.971269 0
M  V30 99 H -4.352942 -2.134927 2.316422 0
M  V30 100 H -1.330244 -0.749996 -2.665384 0
M  V30 101 H -2.100004 -1.506449 -4.061112 0
M  V30 102 H -3.064841 -0.547177 -2.943249 0
M  V30 103 H -1.136868 -3.719201 -3.406338 0
M  V30 104 H -1.441239 -4.431174 -1.821309 0
M  V30 105 H -0.376086 -3.024699 -1.970378 0
M  V30 106 H -3.971320 -4.177955 -2.192039 0
M  V30 107 H -3.648357 -3.485387 -3.780481 0
M  V30 108 H -4.662072 -2.611255 -2.632947 0
M  V30 109 H 1.864759 -2.702402 -0.854297 0
M  V30 110 H 1.789510 -5.158389 -0.647340 0
M  V30 111 H 2.998984 -6.306297 3.524231 0
M  V30 112 H 3.731669 -5.182048 5.598174 0
M  V30 113 H 3.939265 -2.706240 5.648653 0
M  V30 114 H 3.418881 -1.393247 3.666695 0
M  V30 END ATOM
M  V30 BEGIN BOND
M  V30 1 2 1 2
M  V30 2 1 2 3
M  V30 3 1 3 4
M  V30 4 1 4 5
M  V30 5 1 5 6
M  V30 6 1 6 7
M  V30 7 1 7 8
M  V30 8 1 8 9
M  V30 9 1 9 10
M  V30 10 1 10 11
M  V30 11 1 11 12
M  V30 12 1 12 13
M  V30 13 2 13 14
M  V30 14 1 13 15
M  V30 15 1 15 16
M  V30 16 1 16 17
M  V30 17 2 17 18
M  V30 18 1 17 19
M  V30 19 1 19 20
M  V30 20 2 20 21
M  V30 21 1 21 22
M  V30 22 1 22 23
M  V30 23 1 23 24
M  V30 24 1 23 25
M  V30 25 1 23 26
M  V30 26 2 22 27
M  V30 27 1 27 28
M  V30 28 1 28 29
M  V30 29 1 29 30
M  V30 30 1 29 31
M  V30 31 1 29 32
M  V30 32 2 28 33
M  V30 33 1 15 34
M  V30 34 1 34 35
M  V30 35 1 34 36
M  V30 36 1 36 37
M  V30 37 1 37 38
M  V30 38 2 38 39
M  V30 39 1 39 40
M  V30 40 2 40 41
M  V30 41 1 41 42
M  V30 42 2 42 43
M  V30 43 1 37 44
M  V30 44 2 44 45
M  V30 45 1 45 46
M  V30 46 2 46 47
M  V30 47 1 47 48
M  V30 48 2 48 49
M  V30 49 1 37 50
M  V30 50 1 50 51
M  V30 51 1 50 52
M  V30 52 1 50 53
M  V30 53 1 11 54
M  V30 54 2 54 55
M  V30 55 1 55 56
M  V30 56 2 56 57
M  V30 57 1 57 58
M  V30 58 2 58 59
M  V30 59 1 59 60
M  V30 60 2 60 61
M  V30 61 1 61 62
M  V30 62 2 62 63
M  V30 63 1 8 3
M  V30 64 1 33 20
M  V30 65 1 43 38
M  V30 66 1 49 44
M  V30 67 1 63 54
M  V30 68 1 10 5
M  V30 69 1 63 58
M  V30 70 1 1 64
M  V30 71 1 1 65
M  V30 72 1 2 66
M  V30 73 1 3 67 CFG=1
M  V30 74 1 4 68
M  V30 75 1 4 69
M  V30 76 1 6 70
M  V30 77 1 6 71
M  V30 78 1 7 72
M  V30 79 1 7 73
M  V30 80 1 8 74 CFG=3
M  V30 81 1 9 75
M  V30 82 1 9 76
M  V30 83 1 10 77 CFG=3
M  V30 84 1 11 78 CFG=1
M  V30 85 1 12 79
M  V30 86 1 15 80 CFG=3
M  V30 87 1 16 81
M  V30 88 1 19 82
M  V30 89 1 21 83
M  V30 90 1 27 84
M  V30 91 1 33 85
M  V30 92 1 34 86 CFG=3
M  V30 93 1 35 87
M  V30 94 1 35 88
M  V30 95 1 35 89
M  V30 96 1 39 90
M  V30 97 1 40 91
M  V30 98 1 41 92
M  V30 99 1 42 93
M  V30 100 1 43 94
M  V30 101 1 45 95
M  V30 102 1 46 96
M  V30 103 1 47 97
M  V30 104 1 48 98
M  V30 105 1 49 99
M  V30 106 1 51 100
M  V30 107 1 51 101
M  V30 108 1 51 102
M  V30 109 1 52 103
M  V30 110 1 52 104
M  V30 111 1 52 105
M  V30 112 1 53 106
M  V30 113 1 53 107
M  V30 114 1 53 108
M  V30 115 1 55 109
M  V30 116 1 56 110
M  V30 117 1 59 111
M  V30 118 1 60 112
M  V30 119 1 61 113
M  V30 120 1 62 114
M  V30 END BOND
M  V30 END CTAB
M  END
>  <catalyst_id>  (1) 
SSWZBDWQWOEADT_OOMSKWEDSA_NONE

>  <source_smiles>  (1) 
C=C[C@H]1CN2CC[C@H]1C[C@H]2[C@@H](NC(=O)[C@H](NC(=S)Nc1cc(C(F)(F)F)cc(C(F)(F)F)c1)[C@H](C)O[Si](c1ccccc1)(c1ccccc1)C(C)(C)C)c1ccnc2ccccc12

>  <axial_configuration>  (1) 
none

>  <inchikey>  (1) 
SSWZBDWQWOEADT-OOMSKWEDSA-N

>  <build_source>  (1) 
smiles

>  <rdkit_version>  (1) 
2025.09.6

>  <random_seed>  (1) 
42

>  <generated_at>  (1) 
2026-05-19T12:32:32

$$$$
