catalyst369
     RDKit          3D

  0  0  0  0  0  0  0  0  0  0999 V3000
M  V30 BEGIN CTAB
M  V30 COUNTS 79 84 0 0 0
M  V30 BEGIN ATOM
M  V30 1 C -2.821619 -3.210533 4.214197 0
M  V30 2 C -2.483792 -2.490461 3.136542 0
M  V30 3 C -2.940100 -1.070851 2.892358 0 CFG=1
M  V30 4 C -1.744502 -0.101973 2.696132 0
M  V30 5 N -1.880604 0.709595 1.457637 0
M  V30 6 C -3.159368 1.449672 1.532008 0
M  V30 7 C -4.368971 0.506622 1.603813 0
M  V30 8 C -3.875523 -0.950418 1.664149 0 CFG=1
M  V30 9 C -3.093681 -1.194588 0.360467 0
M  V30 10 C -1.879019 -0.234013 0.287663 0 CFG=1
M  V30 11 C -1.723221 0.495826 -1.093541 0 CFG=2
M  V30 12 O -2.989054 1.016980 -1.533618 0
M  V30 13 C -2.846357 2.175599 -2.353138 0
M  V30 14 C -4.190785 2.488266 -2.954032 0
M  V30 15 C -4.433959 2.271882 -4.317357 0
M  V30 16 C -5.685289 2.557118 -4.866804 0
M  V30 17 C -6.705932 3.055462 -4.058919 0
M  V30 18 C -6.478377 3.266052 -2.700268 0
M  V30 19 C -5.227890 2.981925 -2.149675 0
M  V30 20 C -1.148472 -0.458435 -2.143961 0
M  V30 21 C -2.022945 -1.154469 -2.990950 0
M  V30 22 C -1.499501 -2.015714 -3.931829 0
M  V30 23 N -0.181333 -2.240060 -4.086521 0
M  V30 24 C 0.669184 -1.590585 -3.278429 0
M  V30 25 C 2.022514 -1.844411 -3.433312 0
M  V30 26 C 2.988458 -1.221892 -2.638691 0
M  V30 27 C 2.607339 -0.302684 -1.666359 0
M  V30 28 N 3.626939 0.273541 -0.880323 0
M  V30 29 C 3.649838 1.437641 -0.154775 0
M  V30 30 S 2.669331 2.781107 -0.349817 0
M  V30 31 N 4.670531 1.560630 0.756287 0
M  V30 32 C 5.472713 0.597930 1.400612 0
M  V30 33 C 5.181803 -0.767555 1.433740 0
M  V30 34 C 6.024444 -1.672192 2.104502 0
M  V30 35 C 5.679624 -3.143263 2.130995 0
M  V30 36 F 6.739872 -3.936370 2.447636 0
M  V30 37 F 5.223193 -3.593879 0.929802 0
M  V30 38 F 4.708075 -3.430739 3.037817 0
M  V30 39 C 7.155320 -1.182776 2.775063 0
M  V30 40 C 7.443908 0.189712 2.786878 0
M  V30 41 C 8.668688 0.714675 3.498397 0
M  V30 42 F 8.507436 1.981688 3.969765 0
M  V30 43 F 9.758003 0.751235 2.684369 0
M  V30 44 F 9.024927 -0.041598 4.572604 0
M  V30 45 C 6.593762 1.068129 2.094444 0
M  V30 46 C 1.245676 -0.062166 -1.474679 0
M  V30 47 C 0.251499 -0.681518 -2.279012 0
M  V30 48 H -2.460825 -4.227402 4.337316 0
M  V30 49 H -3.463184 -2.810355 4.993163 0
M  V30 50 H -1.836251 -2.946675 2.390044 0
M  V30 51 H -3.503342 -0.729731 3.773023 0
M  V30 52 H -0.783981 -0.633542 2.679661 0
M  V30 53 H -1.678439 0.573339 3.559618 0
M  V30 54 H -3.149137 2.099194 2.417162 0
M  V30 55 H -3.259153 2.139342 0.688228 0
M  V30 56 H -5.011056 0.651856 0.726717 0
M  V30 57 H -4.973547 0.738938 2.488486 0
M  V30 58 H -4.725470 -1.637945 1.738960 0
M  V30 59 H -3.774596 -1.063119 -0.487405 0
M  V30 60 H -2.744493 -2.232556 0.312974 0
M  V30 61 H -0.973397 -0.845289 0.410019 0
M  V30 62 H -1.039868 1.344102 -0.963196 0
M  V30 63 H -2.106076 2.005316 -3.143714 0
M  V30 64 H -2.505817 3.021424 -1.744155 0
M  V30 65 H -3.650018 1.877130 -4.959744 0
M  V30 66 H -5.864354 2.387897 -5.925316 0
M  V30 67 H -7.680065 3.275458 -4.487317 0
M  V30 68 H -7.275458 3.647789 -2.068008 0
M  V30 69 H -5.062878 3.138885 -1.086211 0
M  V30 70 H -3.099503 -1.024647 -2.924651 0
M  V30 71 H -2.147267 -2.566930 -4.607455 0
M  V30 72 H 2.337115 -2.551635 -4.198002 0
M  V30 73 H 4.034434 -1.461416 -2.810133 0
M  V30 74 H 4.552973 -0.110153 -1.029303 0
M  V30 75 H 4.792249 2.520801 1.066593 0
M  V30 76 H 4.272281 -1.159741 0.983520 0
M  V30 77 H 7.811763 -1.875937 3.304805 0
M  V30 78 H 6.826816 2.133154 2.093294 0
M  V30 79 H 0.937758 0.584310 -0.660265 0
M  V30 END ATOM
M  V30 BEGIN BOND
M  V30 1 2 1 2
M  V30 2 1 2 3
M  V30 3 1 3 4
M  V30 4 1 4 5
M  V30 5 1 5 6
M  V30 6 1 6 7
M  V30 7 1 7 8
M  V30 8 1 8 9
M  V30 9 1 9 10
M  V30 10 1 10 11
M  V30 11 1 11 12
M  V30 12 1 12 13
M  V30 13 1 13 14
M  V30 14 2 14 15
M  V30 15 1 15 16
M  V30 16 2 16 17
M  V30 17 1 17 18
M  V30 18 2 18 19
M  V30 19 1 11 20
M  V30 20 2 20 21
M  V30 21 1 21 22
M  V30 22 2 22 23
M  V30 23 1 23 24
M  V30 24 2 24 25
M  V30 25 1 25 26
M  V30 26 2 26 27
M  V30 27 1 27 28
M  V30 28 1 28 29
M  V30 29 2 29 30
M  V30 30 1 29 31
M  V30 31 1 31 32
M  V30 32 2 32 33
M  V30 33 1 33 34
M  V30 34 1 34 35
M  V30 35 1 35 36
M  V30 36 1 35 37
M  V30 37 1 35 38
M  V30 38 2 34 39
M  V30 39 1 39 40
M  V30 40 1 40 41
M  V30 41 1 41 42
M  V30 42 1 41 43
M  V30 43 1 41 44
M  V30 44 2 40 45
M  V30 45 1 27 46
M  V30 46 2 46 47
M  V30 47 1 8 3
M  V30 48 1 19 14
M  V30 49 1 47 20
M  V30 50 1 10 5
M  V30 51 1 47 24
M  V30 52 1 45 32
M  V30 53 1 1 48
M  V30 54 1 1 49
M  V30 55 1 2 50
M  V30 56 1 3 51 CFG=1
M  V30 57 1 4 52
M  V30 58 1 4 53
M  V30 59 1 6 54
M  V30 60 1 6 55
M  V30 61 1 7 56
M  V30 62 1 7 57
M  V30 63 1 8 58 CFG=1
M  V30 64 1 9 59
M  V30 65 1 9 60
M  V30 66 1 10 61 CFG=1
M  V30 67 1 11 62 CFG=1
M  V30 68 1 13 63
M  V30 69 1 13 64
M  V30 70 1 15 65
M  V30 71 1 16 66
M  V30 72 1 17 67
M  V30 73 1 18 68
M  V30 74 1 19 69
M  V30 75 1 21 70
M  V30 76 1 22 71
M  V30 77 1 25 72
M  V30 78 1 26 73
M  V30 79 1 28 74
M  V30 80 1 31 75
M  V30 81 1 33 76
M  V30 82 1 39 77
M  V30 83 1 45 78
M  V30 84 1 46 79
M  V30 END BOND
M  V30 END CTAB
M  END
>  <catalyst_id>  (1) 
VTFCTIIECOTHPV_QWENJRSESA_NONE

>  <source_smiles>  (1) 
C=C[C@H]1CN2CC[C@H]1C[C@H]2[C@H](OCc1ccccc1)c1ccnc2ccc(NC(=S)Nc3cc(C(F)(F)F)cc(C(F)(F)F)c3)cc12

>  <axial_configuration>  (1) 
none

>  <inchikey>  (1) 
VTFCTIIECOTHPV-QWENJRSESA-N

>  <build_source>  (1) 
smiles

>  <rdkit_version>  (1) 
2025.09.6

>  <random_seed>  (1) 
42

>  <generated_at>  (1) 
2026-05-19T12:33:45

$$$$
