catalyst18
     RDKit          3D

  0  0  0  0  0  0  0  0  0  0999 V3000
M  V30 BEGIN CTAB
M  V30 COUNTS 52 54 0 0 0
M  V30 BEGIN ATOM
M  V30 1 F 7.081130 2.573140 0.836962 0
M  V30 2 C 6.115280 1.875273 1.498637 0
M  V30 3 F 5.448365 2.792583 2.251671 0
M  V30 4 F 6.772145 1.068761 2.375161 0
M  V30 5 C 5.210589 1.100231 0.569293 0
M  V30 6 C 3.913857 0.744589 0.982814 0
M  V30 7 C 3.066128 0.011937 0.151453 0
M  V30 8 N 1.743681 -0.355073 0.483688 0
M  V30 9 C 1.116628 -0.492045 1.695767 0
M  V30 10 S 1.792518 -0.595045 3.219142 0
M  V30 11 N -0.247601 -0.584159 1.644823 0
M  V30 12 C -1.162607 -0.537001 0.490440 0 CFG=1
M  V30 13 C -1.302618 -1.928325 -0.151089 0
M  V30 14 C -2.093040 -2.900125 0.723435 0
M  V30 15 C -3.445701 -2.329438 1.134834 0
M  V30 16 C -3.297958 -0.957336 1.789262 0
M  V30 17 C -2.559642 0.060445 0.882259 0 CFG=2
M  V30 18 N -3.370357 0.413963 -0.312495 0
M  V30 19 C -2.747678 1.447572 -1.151693 0
M  V30 20 C -3.880513 1.944394 -2.037524 0
M  V30 21 C -5.156313 1.584945 -1.293830 0
M  V30 22 C -4.690080 0.970156 0.015541 0
M  V30 23 C 3.516604 -0.336934 -1.128807 0
M  V30 24 C 4.813436 -0.013116 -1.562158 0
M  V30 25 C 5.274506 -0.401430 -2.946245 0
M  V30 26 F 6.619892 -0.591569 -3.028108 0
M  V30 27 F 4.970479 0.547122 -3.873368 0
M  V30 28 F 4.706091 -1.556272 -3.391431 0
M  V30 29 C 5.654229 0.706340 -0.701912 0
M  V30 30 H 3.579775 1.094240 1.955789 0
M  V30 31 H 1.212847 -0.737564 -0.285449 0
M  V30 32 H -0.657073 -0.760447 2.556103 0
M  V30 33 H -0.682321 0.127471 -0.233937 0
M  V30 34 H -1.808630 -1.830685 -1.119639 0
M  V30 35 H -0.316932 -2.360855 -0.357581 0
M  V30 36 H -2.241394 -3.842028 0.183044 0
M  V30 37 H -1.511578 -3.141535 1.621687 0
M  V30 38 H -4.098670 -2.258720 0.256917 0
M  V30 39 H -3.933083 -3.017667 1.834913 0
M  V30 40 H -4.283523 -0.584381 2.088082 0
M  V30 41 H -2.747989 -1.073125 2.731405 0
M  V30 42 H -2.391302 0.969993 1.476095 0
M  V30 43 H -2.361840 2.277602 -0.546269 0
M  V30 44 H -1.932990 1.054135 -1.766904 0
M  V30 45 H -3.864111 1.444374 -3.012857 0
M  V30 46 H -3.804645 3.022559 -2.212207 0
M  V30 47 H -5.732951 0.858084 -1.878278 0
M  V30 48 H -5.792237 2.459947 -1.126331 0
M  V30 49 H -4.617954 1.747014 0.787307 0
M  V30 50 H -5.400377 0.206813 0.346843 0
M  V30 51 H 2.863772 -0.889942 -1.803769 0
M  V30 52 H 6.661755 0.971133 -1.027795 0
M  V30 END ATOM
M  V30 BEGIN BOND
M  V30 1 1 1 2
M  V30 2 1 2 3
M  V30 3 1 2 4
M  V30 4 1 2 5
M  V30 5 2 5 6
M  V30 6 1 6 7
M  V30 7 1 7 8
M  V30 8 1 8 9
M  V30 9 2 9 10
M  V30 10 1 9 11
M  V30 11 1 11 12
M  V30 12 1 12 13
M  V30 13 1 13 14
M  V30 14 1 14 15
M  V30 15 1 15 16
M  V30 16 1 16 17
M  V30 17 1 17 18
M  V30 18 1 18 19
M  V30 19 1 19 20
M  V30 20 1 20 21
M  V30 21 1 21 22
M  V30 22 2 7 23
M  V30 23 1 23 24
M  V30 24 1 24 25
M  V30 25 1 25 26
M  V30 26 1 25 27
M  V30 27 1 25 28
M  V30 28 2 24 29
M  V30 29 1 29 5
M  V30 30 1 17 12
M  V30 31 1 22 18
M  V30 32 1 6 30
M  V30 33 1 8 31
M  V30 34 1 11 32
M  V30 35 1 12 33 CFG=3
M  V30 36 1 13 34
M  V30 37 1 13 35
M  V30 38 1 14 36
M  V30 39 1 14 37
M  V30 40 1 15 38
M  V30 41 1 15 39
M  V30 42 1 16 40
M  V30 43 1 16 41
M  V30 44 1 17 42 CFG=1
M  V30 45 1 19 43
M  V30 46 1 19 44
M  V30 47 1 20 45
M  V30 48 1 20 46
M  V30 49 1 21 47
M  V30 50 1 21 48
M  V30 51 1 22 49
M  V30 52 1 22 50
M  V30 53 1 23 51
M  V30 54 1 29 52
M  V30 END BOND
M  V30 END CTAB
M  END
>  <catalyst_id>  (1) 
BSICYYMKFDEOFB_HOTGVXAUSA_NONE

>  <source_smiles>  (1) 
FC(F)(F)c1cc(NC(=S)N[C@H]2CCCC[C@@H]2N2CCCC2)cc(C(F)(F)F)c1

>  <axial_configuration>  (1) 
none

>  <inchikey>  (1) 
BSICYYMKFDEOFB-HOTGVXAUSA-N

>  <build_source>  (1) 
smiles

>  <rdkit_version>  (1) 
2025.09.6

>  <random_seed>  (1) 
42

>  <generated_at>  (1) 
2026-05-19T12:40:08

$$$$
