catalyst340
     RDKit          3D

  0  0  0  0  0  0  0  0  0  0999 V3000
M  V30 BEGIN CTAB
M  V30 COUNTS 126 136 0 0 0
M  V30 BEGIN ATOM
M  V30 1 C 3.641390 5.640451 0.706970 0
M  V30 2 C 3.123159 4.310004 1.231836 0
M  V30 3 C 4.169537 3.512362 2.024171 0 CFG=1
M  V30 4 C 3.540970 2.230877 2.627516 0
M  V30 5 N 4.468420 1.075729 2.558740 0
M  V30 6 C 5.773568 1.498378 3.123928 0
M  V30 7 C 6.448271 2.557718 2.236108 0
M  V30 8 C 5.422117 3.092974 1.217892 0 CFG=1
M  V30 9 C 5.047590 1.929447 0.278606 0
M  V30 10 C 4.693643 0.680595 1.124772 0 CFG=2
M  V30 11 C 3.549170 -0.216029 0.529631 0 CFG=1
M  V30 12 O 2.427973 0.587377 0.108959 0
M  V30 13 C 1.202831 -0.066458 0.095388 0
M  V30 14 N 1.172229 -1.369642 0.431894 0
M  V30 15 C -0.026015 -1.969571 0.437714 0
M  V30 16 C -0.084231 -3.393710 0.814577 0
M  V30 17 C -1.291329 -4.001339 1.208012 0
M  V30 18 C -1.347617 -5.351748 1.567046 0
M  V30 19 C -0.192802 -6.128149 1.540601 0
M  V30 20 C 1.015427 -5.556219 1.153997 0
M  V30 21 C 1.065635 -4.205734 0.795062 0
M  V30 22 N -1.173602 -1.352753 0.126483 0
M  V30 23 C -1.095863 -0.056838 -0.228812 0
M  V30 24 O -2.266832 0.599427 -0.582529 0
M  V30 25 C -3.464034 -0.204660 -0.539837 0 CFG=1
M  V30 26 C -4.023365 -0.277113 0.887723 0
M  V30 27 C -3.839990 0.811065 1.752744 0
M  V30 28 C -4.343796 0.738742 3.034524 0
M  V30 29 N -5.017690 -0.322592 3.513706 0
M  V30 30 C -5.211133 -1.369143 2.697251 0
M  V30 31 C -5.907318 -2.457260 3.202610 0
M  V30 32 C -6.171118 -3.596354 2.435990 0
M  V30 33 C -5.733140 -3.654408 1.121810 0
M  V30 34 O -5.917237 -4.694556 0.255349 0
M  V30 35 C -6.603383 -5.835854 0.754326 0
M  V30 36 C -5.032229 -2.566575 0.593608 0
M  V30 37 C -4.746331 -1.409142 1.362348 0
M  V30 38 C -4.557892 0.373171 -1.508410 0 CFG=1
M  V30 39 C -4.793379 1.899963 -1.383815 0
M  V30 40 C -5.116663 2.482109 -2.774253 0 CFG=2
M  V30 41 C -6.210506 1.598559 -3.406530 0
M  V30 42 C -5.640961 0.191986 -3.658294 0
M  V30 43 N -4.350918 0.001995 -2.951037 0
M  V30 44 C -3.348129 0.899871 -3.571964 0
M  V30 45 C -3.864808 2.357045 -3.675549 0 CFG=2
M  V30 46 C -2.739134 3.355859 -3.368480 0
M  V30 47 C -3.145546 4.809110 -3.560633 0
M  V30 48 C 0.084544 0.673930 -0.264284 0
M  V30 49 C 0.144850 2.091408 -0.643226 0
M  V30 50 C 0.760930 2.491502 -1.840653 0
M  V30 51 C 0.821560 3.840043 -2.200412 0
M  V30 52 C 0.262035 4.808742 -1.370359 0
M  V30 53 C -0.355547 4.431421 -0.180100 0
M  V30 54 C -0.410964 3.083199 0.181860 0
M  V30 55 C 4.100037 -1.045298 -0.638089 0
M  V30 56 C 4.037156 -0.521715 -1.937314 0
M  V30 57 C 4.537759 -1.268046 -2.983118 0
M  V30 58 N 5.097945 -2.481900 -2.833209 0
M  V30 59 C 5.171473 -2.997090 -1.596800 0
M  V30 60 C 5.746850 -4.250148 -1.457666 0
M  V30 61 C 5.869246 -4.871078 -0.213731 0
M  V30 62 C 5.412757 -4.234174 0.932044 0
M  V30 63 O 5.577741 -4.941536 2.089317 0
M  V30 64 C 4.997280 -4.394926 3.268134 0
M  V30 65 C 4.844337 -2.965297 0.816021 0
M  V30 66 C 4.697049 -2.325077 -0.445071 0
M  V30 67 H 4.073154 6.241215 1.513465 0
M  V30 68 H 2.821530 6.212878 0.261303 0
M  V30 69 H 4.401056 5.498567 -0.066806 0
M  V30 70 H 2.745685 3.719482 0.392412 0
M  V30 71 H 2.265149 4.510622 1.885566 0
M  V30 72 H 4.501452 4.151747 2.855093 0
M  V30 73 H 2.586865 1.981287 2.152838 0
M  V30 74 H 3.287512 2.420093 3.678940 0
M  V30 75 H 6.433236 0.628897 3.234497 0
M  V30 76 H 5.629859 1.888002 4.139831 0
M  V30 77 H 6.831199 3.374602 2.858869 0
M  V30 78 H 7.305283 2.121281 1.708893 0
M  V30 79 H 5.853721 3.925200 0.655060 0
M  V30 80 H 4.229946 2.231388 -0.382052 0
M  V30 81 H 5.902166 1.693259 -0.367838 0
M  V30 82 H 5.586017 0.036667 1.142215 0
M  V30 83 H 3.226655 -0.873349 1.344447 0
M  V30 84 H -2.207914 -3.415786 1.242868 0
M  V30 85 H -2.296158 -5.790944 1.864988 0
M  V30 86 H -0.235056 -7.178128 1.817026 0
M  V30 87 H 1.921206 -6.156813 1.123968 0
M  V30 88 H 2.019564 -3.787006 0.482352 0
M  V30 89 H -3.231971 -1.210616 -0.907581 0
M  V30 90 H -3.308934 1.703123 1.438506 0
M  V30 91 H -4.215209 1.559384 3.734275 0
M  V30 92 H -6.258178 -2.418137 4.231872 0
M  V30 93 H -6.720608 -4.408018 2.899847 0
M  V30 94 H -6.656838 -6.573076 -0.052532 0
M  V30 95 H -6.057443 -6.291948 1.586852 0
M  V30 96 H -7.628840 -5.583931 1.044105 0
M  V30 97 H -4.706710 -2.643800 -0.441343 0
M  V30 98 H -5.494662 -0.124080 -1.214673 0
M  V30 99 H -5.639761 2.077629 -0.708493 0
M  V30 100 H -3.933856 2.420494 -0.951956 0
M  V30 101 H -5.470428 3.513546 -2.692756 0
M  V30 102 H -7.078380 1.542715 -2.738264 0
M  V30 103 H -6.555202 2.034043 -4.351675 0
M  V30 104 H -6.362903 -0.567074 -3.332717 0
M  V30 105 H -5.503736 0.023325 -4.734048 0
M  V30 106 H -2.397667 0.840613 -3.032758 0
M  V30 107 H -3.118484 0.531602 -4.580545 0
M  V30 108 H -4.178245 2.533596 -4.714780 0
M  V30 109 H -1.892144 3.146300 -4.033687 0
M  V30 110 H -2.374751 3.220734 -2.346371 0
M  V30 111 H -3.886009 5.120562 -2.818568 0
M  V30 112 H -3.562287 4.973209 -4.559217 0
M  V30 113 H -2.273126 5.460688 -3.447582 0
M  V30 114 H 1.195505 1.748454 -2.506052 0
M  V30 115 H 1.301126 4.132727 -3.130817 0
M  V30 116 H 0.306938 5.857789 -1.651331 0
M  V30 117 H -0.790476 5.186485 0.469480 0
M  V30 118 H -0.889117 2.808647 1.119588 0
M  V30 119 H 3.601100 0.451287 -2.137389 0
M  V30 120 H 4.501229 -0.898465 -4.003776 0
M  V30 121 H 6.109204 -4.763343 -2.345501 0
M  V30 122 H 6.321315 -5.857202 -0.145900 0
M  V30 123 H 3.916698 -4.258935 3.152401 0
M  V30 124 H 5.487660 -3.456830 3.547958 0
M  V30 125 H 5.157563 -5.109468 4.081214 0
M  V30 126 H 4.503519 -2.458116 1.711185 0
M  V30 END ATOM
M  V30 BEGIN BOND
M  V30 1 1 1 2
M  V30 2 1 2 3
M  V30 3 1 3 4
M  V30 4 1 4 5
M  V30 5 1 5 6
M  V30 6 1 6 7
M  V30 7 1 7 8
M  V30 8 1 8 9
M  V30 9 1 9 10
M  V30 10 1 10 11
M  V30 11 1 11 12
M  V30 12 1 12 13
M  V30 13 2 13 14
M  V30 14 1 14 15
M  V30 15 1 15 16
M  V30 16 2 16 17
M  V30 17 1 17 18
M  V30 18 2 18 19
M  V30 19 1 19 20
M  V30 20 2 20 21
M  V30 21 2 15 22
M  V30 22 1 22 23
M  V30 23 1 23 24
M  V30 24 1 24 25
M  V30 25 1 25 26
M  V30 26 2 26 27
M  V30 27 1 27 28
M  V30 28 2 28 29
M  V30 29 1 29 30
M  V30 30 2 30 31
M  V30 31 1 31 32
M  V30 32 2 32 33
M  V30 33 1 33 34
M  V30 34 1 34 35
M  V30 35 1 33 36
M  V30 36 2 36 37
M  V30 37 1 25 38
M  V30 38 1 38 39
M  V30 39 1 39 40
M  V30 40 1 40 41
M  V30 41 1 41 42
M  V30 42 1 42 43
M  V30 43 1 43 44
M  V30 44 1 44 45
M  V30 45 1 45 46
M  V30 46 1 46 47
M  V30 47 2 23 48
M  V30 48 1 48 49
M  V30 49 2 49 50
M  V30 50 1 50 51
M  V30 51 2 51 52
M  V30 52 1 52 53
M  V30 53 2 53 54
M  V30 54 1 11 55
M  V30 55 2 55 56
M  V30 56 1 56 57
M  V30 57 2 57 58
M  V30 58 1 58 59
M  V30 59 2 59 60
M  V30 60 1 60 61
M  V30 61 2 61 62
M  V30 62 1 62 63
M  V30 63 1 63 64
M  V30 64 1 62 65
M  V30 65 2 65 66
M  V30 66 1 8 3
M  V30 67 1 48 13
M  V30 68 1 54 49
M  V30 69 1 66 55
M  V30 70 1 10 5
M  V30 71 1 21 16
M  V30 72 1 37 26
M  V30 73 1 43 38
M  V30 74 1 66 59
M  V30 75 1 37 30
M  V30 76 1 45 40
M  V30 77 1 1 67
M  V30 78 1 1 68
M  V30 79 1 1 69
M  V30 80 1 2 70
M  V30 81 1 2 71
M  V30 82 1 3 72 CFG=1
M  V30 83 1 4 73
M  V30 84 1 4 74
M  V30 85 1 6 75
M  V30 86 1 6 76
M  V30 87 1 7 77
M  V30 88 1 7 78
M  V30 89 1 8 79 CFG=3
M  V30 90 1 9 80
M  V30 91 1 9 81
M  V30 92 1 10 82 CFG=1
M  V30 93 1 11 83 CFG=1
M  V30 94 1 17 84
M  V30 95 1 18 85
M  V30 96 1 19 86
M  V30 97 1 20 87
M  V30 98 1 21 88
M  V30 99 1 25 89 CFG=3
M  V30 100 1 27 90
M  V30 101 1 28 91
M  V30 102 1 31 92
M  V30 103 1 32 93
M  V30 104 1 35 94
M  V30 105 1 35 95
M  V30 106 1 35 96
M  V30 107 1 36 97
M  V30 108 1 38 98 CFG=1
M  V30 109 1 39 99
M  V30 110 1 39 100
M  V30 111 1 40 101 CFG=1
M  V30 112 1 41 102
M  V30 113 1 41 103
M  V30 114 1 42 104
M  V30 115 1 42 105
M  V30 116 1 44 106
M  V30 117 1 44 107
M  V30 118 1 45 108 CFG=3
M  V30 119 1 46 109
M  V30 120 1 46 110
M  V30 121 1 47 111
M  V30 122 1 47 112
M  V30 123 1 47 113
M  V30 124 1 50 114
M  V30 125 1 51 115
M  V30 126 1 52 116
M  V30 127 1 53 117
M  V30 128 1 54 118
M  V30 129 1 56 119
M  V30 130 1 57 120
M  V30 131 1 60 121
M  V30 132 1 61 122
M  V30 133 1 64 123
M  V30 134 1 64 124
M  V30 135 1 64 125
M  V30 136 1 65 126
M  V30 END BOND
M  V30 END CTAB
M  END
>  <catalyst_id>  (1) 
SWKRDCRSJPRVNF_DOGDSVMGSA_NONE

>  <source_smiles>  (1) 
CC[C@H]1CN2CC[C@H]1C[C@@H]2[C@@H](Oc1nc(-c2ccccc2)nc(O[C@@H](c2ccnc3ccc(OC)cc23)[C@H]2C[C@@H]3CCN2C[C@@H]3CC)c1-c1ccccc1)c1ccnc2ccc(OC)cc12

>  <axial_configuration>  (1) 
none

>  <inchikey>  (1) 
SWKRDCRSJPRVNF-DOGDSVMGSA-N

>  <build_source>  (1) 
smiles

>  <final_biaryl_angle_deg>  (1) 
162.02

>  <rdkit_version>  (1) 
2025.09.6

>  <random_seed>  (1) 
42

>  <generated_at>  (1) 
2026-05-19T12:29:57

$$$$
