catalyst2
     RDKit          3D

  0  0  0  0  0  0  0  0  0  0999 V3000
M  V30 BEGIN CTAB
M  V30 COUNTS 34 34 0 0 0
M  V30 BEGIN ATOM
M  V30 1 C -3.668431 -0.686304 1.522886 0
M  V30 2 C -2.672622 -0.379259 0.395520 0
M  V30 3 C -2.543814 -1.616792 -0.499926 0
M  V30 4 C -1.299670 0.080479 0.955125 0 CFG=2
M  V30 5 N -1.458631 1.282151 1.801273 0
M  V30 6 C -0.252288 0.368320 -0.167062 0
M  V30 7 N 0.952019 1.082920 0.320905 0
M  V30 8 C 1.814567 0.254354 1.181474 0
M  V30 9 C 2.586300 -0.838099 0.436224 0
M  V30 10 C 3.378310 -0.259999 -0.731394 0
M  V30 11 C 2.490708 0.607440 -1.616977 0
M  V30 12 C 1.733952 1.649876 -0.790404 0
M  V30 13 H -3.877154 0.201707 2.127750 0
M  V30 14 H -3.285251 -1.469194 2.186299 0
M  V30 15 H -4.624833 -1.029520 1.113407 0
M  V30 16 H -3.098470 0.428952 -0.214276 0
M  V30 17 H -1.973200 -1.395927 -1.406993 0
M  V30 18 H -3.529811 -1.969569 -0.821763 0
M  V30 19 H -2.046978 -2.437777 0.027931 0
M  V30 20 H -0.907267 -0.716862 1.598132 0
M  V30 21 H -0.508104 1.636982 1.960922 0
M  V30 22 H -1.890401 2.016920 1.241034 0
M  V30 23 H 0.019530 -0.564055 -0.672380 0
M  V30 24 H -0.748487 1.001845 -0.914842 0
M  V30 25 H 1.241591 -0.194601 1.999699 0
M  V30 26 H 2.536776 0.918836 1.674483 0
M  V30 27 H 3.272349 -1.338723 1.129232 0
M  V30 28 H 1.896327 -1.607053 0.069817 0
M  V30 29 H 3.823567 -1.068679 -1.321270 0
M  V30 30 H 4.206083 0.346301 -0.343066 0
M  V30 31 H 1.783537 -0.026522 -2.164904 0
M  V30 32 H 3.107406 1.113050 -2.368891 0
M  V30 33 H 1.086597 2.244496 -1.446577 0
M  V30 34 H 2.455791 2.364307 -0.373015 0
M  V30 END ATOM
M  V30 BEGIN BOND
M  V30 1 1 1 2
M  V30 2 1 2 3
M  V30 3 1 2 4
M  V30 4 1 4 5
M  V30 5 1 4 6
M  V30 6 1 6 7
M  V30 7 1 7 8
M  V30 8 1 8 9
M  V30 9 1 9 10
M  V30 10 1 10 11
M  V30 11 1 11 12
M  V30 12 1 12 7
M  V30 13 1 1 13
M  V30 14 1 1 14
M  V30 15 1 1 15
M  V30 16 1 2 16
M  V30 17 1 3 17
M  V30 18 1 3 18
M  V30 19 1 3 19
M  V30 20 1 4 20 CFG=1
M  V30 21 1 5 21
M  V30 22 1 5 22
M  V30 23 1 6 23
M  V30 24 1 6 24
M  V30 25 1 8 25
M  V30 26 1 8 26
M  V30 27 1 9 27
M  V30 28 1 9 28
M  V30 29 1 10 29
M  V30 30 1 10 30
M  V30 31 1 11 31
M  V30 32 1 11 32
M  V30 33 1 12 33
M  V30 34 1 12 34
M  V30 END BOND
M  V30 END CTAB
M  END
>  <catalyst_id>  (1) 
AEBCFQAXYZSMIZ_SNVBAGLBSA_NONE

>  <source_smiles>  (1) 
CC(C)[C@H](N)CN1CCCCC1

>  <axial_configuration>  (1) 
none

>  <inchikey>  (1) 
AEBCFQAXYZSMIZ-SNVBAGLBSA-N

>  <build_source>  (1) 
smiles

>  <rdkit_version>  (1) 
2025.09.6

>  <random_seed>  (1) 
42

>  <generated_at>  (1) 
2026-05-19T12:37:16

$$$$
