catalyst7
     RDKit          3D

  0  0  0  0  0  0  0  0  0  0999 V3000
M  V30 BEGIN CTAB
M  V30 COUNTS 120 130 0 0 0
M  V30 BEGIN ATOM
M  V30 1 C 4.930955 -1.776833 -4.487241 0
M  V30 2 C 4.880325 -2.595293 -3.203873 0
M  V30 3 C 5.903169 -2.122758 -2.159004 0 CFG=1
M  V30 4 C 5.605228 -0.699738 -1.630647 0
M  V30 5 N 5.817953 -0.598185 -0.165800 0
M  V30 6 C 7.165692 -1.135124 0.144611 0
M  V30 7 C 7.250500 -2.643722 -0.142609 0
M  V30 8 C 6.007290 -3.075502 -0.942909 0 CFG=1
M  V30 9 C 4.781540 -2.876267 -0.031439 0
M  V30 10 C 4.803649 -1.444080 0.558208 0 CFG=2
M  V30 11 C 3.393258 -0.758684 0.673482 0 CFG=1
M  V30 12 O 2.635037 -0.957617 -0.537385 0
M  V30 13 C 1.518413 -0.198928 -0.771491 0
M  V30 14 C 1.402423 1.117096 -0.321986 0
M  V30 15 C 0.232808 1.835888 -0.548296 0
M  V30 16 C -0.834394 1.266526 -1.243739 0
M  V30 17 O -1.971263 2.030618 -1.205192 0
M  V30 18 C -3.219422 1.391316 -0.814887 0 CFG=1
M  V30 19 C -3.106715 0.322779 0.283040 0
M  V30 20 C -3.659508 -0.936394 -0.004025 0
M  V30 21 C -3.521324 -1.956701 0.912237 0
M  V30 22 N -2.869455 -1.823152 2.079626 0
M  V30 23 C -2.362358 -0.618715 2.387729 0
M  V30 24 C -1.700128 -0.492465 3.599238 0
M  V30 25 C -1.124834 0.711991 4.014860 0
M  V30 26 C -1.219710 1.831682 3.204961 0
M  V30 27 O -0.702704 3.068393 3.471168 0
M  V30 28 C 0.119592 3.178595 4.626958 0
M  V30 29 C -1.897680 1.727339 1.988479 0
M  V30 30 C -2.462676 0.508385 1.538442 0
M  V30 31 C -4.264721 2.511372 -0.467229 0 CFG=1
M  V30 32 C -4.345237 3.583612 -1.587824 0
M  V30 33 C -5.810572 4.005988 -1.794590 0 CFG=2
M  V30 34 C -6.380989 4.381858 -0.414180 0
M  V30 35 C -6.392676 3.134925 0.485844 0
M  V30 36 N -5.640511 2.016727 -0.130240 0
M  V30 37 C -6.349207 1.597928 -1.362679 0
M  V30 38 C -6.623652 2.792005 -2.306012 0 CFG=2
M  V30 39 C -6.335514 2.459399 -3.779651 0
M  V30 40 C -7.285550 1.409175 -4.340228 0
M  V30 41 C -0.665020 0.014307 -1.849223 0
M  V30 42 C 0.479091 -0.752839 -1.554617 0
M  V30 43 C 0.534224 -2.169990 -2.024000 0
M  V30 44 O 1.468706 -2.920060 -1.768404 0
M  V30 45 C -0.596276 -2.731032 -2.787574 0
M  V30 46 C -0.616649 -4.094710 -3.113322 0
M  V30 47 C -1.676673 -4.625886 -3.850714 0
M  V30 48 C -2.715996 -3.798181 -4.271173 0
M  V30 49 C -2.696403 -2.440508 -3.950901 0
M  V30 50 C -1.635819 -1.912086 -3.201907 0
M  V30 51 C -1.614718 -0.482555 -2.869706 0
M  V30 52 O -2.358584 0.274513 -3.482021 0
M  V30 53 C 2.651466 -1.283519 1.908400 0
M  V30 54 C 1.808132 -2.395753 1.782487 0
M  V30 55 C 1.153089 -2.870503 2.899717 0
M  V30 56 N 1.293611 -2.341425 4.130320 0
M  V30 57 C 2.109800 -1.288560 4.273004 0
M  V30 58 C 2.251987 -0.759986 5.547507 0
M  V30 59 C 3.079128 0.334915 5.813334 0
M  V30 60 C 3.791333 0.921739 4.778495 0
M  V30 61 O 4.633023 1.992778 4.885294 0
M  V30 62 C 4.839915 2.522673 6.188933 0
M  V30 63 C 3.662718 0.401737 3.487041 0
M  V30 64 C 2.822863 -0.705068 3.199819 0
M  V30 65 H 4.675628 -0.728653 -4.305985 0
M  V30 66 H 4.216070 -2.174075 -5.214763 0
M  V30 67 H 5.927962 -1.815882 -4.937257 0
M  V30 68 H 3.864909 -2.549210 -2.800524 0
M  V30 69 H 5.076631 -3.644688 -3.454347 0
M  V30 70 H 6.886586 -2.108684 -2.651335 0
M  V30 71 H 6.270858 0.013882 -2.133774 0
M  V30 72 H 4.595820 -0.367352 -1.889668 0
M  V30 73 H 7.922918 -0.594678 -0.437605 0
M  V30 74 H 7.412441 -0.941187 1.195724 0
M  V30 75 H 7.305623 -3.206185 0.797393 0
M  V30 76 H 8.164292 -2.863635 -0.706784 0
M  V30 77 H 6.096015 -4.121018 -1.256165 0
M  V30 78 H 3.866874 -3.085938 -0.590382 0
M  V30 79 H 4.815925 -3.602082 0.790782 0
M  V30 80 H 5.180329 -1.520917 1.589171 0
M  V30 81 H 3.588130 0.308835 0.791245 0
M  V30 82 H 2.191792 1.618203 0.227297 0
M  V30 83 H 0.137060 2.837773 -0.133311 0
M  V30 84 H -3.606223 0.911246 -1.715045 0
M  V30 85 H -4.193410 -1.121992 -0.931099 0
M  V30 86 H -3.938463 -2.941494 0.723449 0
M  V30 87 H -1.611089 -1.367554 4.240709 0
M  V30 88 H -0.613515 0.726973 4.970656 0
M  V30 89 H 0.982034 2.507943 4.563656 0
M  V30 90 H 0.498373 4.204229 4.670825 0
M  V30 91 H -0.458298 2.997712 5.539351 0
M  V30 92 H -1.955323 2.622069 1.375944 0
M  V30 93 H -3.882542 3.025200 0.423915 0
M  V30 94 H -3.748564 4.456593 -1.294707 0
M  V30 95 H -3.924467 3.217572 -2.530150 0
M  V30 96 H -5.879823 4.854521 -2.483119 0
M  V30 97 H -5.771853 5.171845 0.041011 0
M  V30 98 H -7.399118 4.775019 -0.516704 0
M  V30 99 H -7.425251 2.821295 0.685713 0
M  V30 100 H -5.965183 3.377419 1.466799 0
M  V30 101 H -7.304194 1.133711 -1.083584 0
M  V30 102 H -5.787158 0.804001 -1.865644 0
M  V30 103 H -7.689100 3.053790 -2.231450 0
M  V30 104 H -5.306902 2.103866 -3.905802 0
M  V30 105 H -6.433942 3.370593 -4.381685 0
M  V30 106 H -8.326965 1.733818 -4.248912 0
M  V30 107 H -7.177035 0.451406 -3.822746 0
M  V30 108 H -7.076229 1.241225 -5.401603 0
M  V30 109 H 0.195318 -4.747809 -2.797151 0
M  V30 110 H -1.686037 -5.684092 -4.102351 0
M  V30 111 H -3.537970 -4.208560 -4.853495 0
M  V30 112 H -3.505658 -1.796287 -4.290199 0
M  V30 113 H 1.657832 -2.890713 0.828000 0
M  V30 114 H 0.476639 -3.718032 2.832202 0
M  V30 115 H 1.701279 -1.220564 6.365371 0
M  V30 116 H 3.141181 0.692088 6.835360 0
M  V30 117 H 5.554004 3.347495 6.105155 0
M  V30 118 H 5.274576 1.771911 6.857184 0
M  V30 119 H 3.909729 2.927934 6.600348 0
M  V30 120 H 4.247508 0.877676 2.703562 0
M  V30 END ATOM
M  V30 BEGIN BOND
M  V30 1 1 1 2
M  V30 2 1 2 3
M  V30 3 1 3 4
M  V30 4 1 4 5
M  V30 5 1 5 6
M  V30 6 1 6 7
M  V30 7 1 7 8
M  V30 8 1 8 9
M  V30 9 1 9 10
M  V30 10 1 10 11
M  V30 11 1 11 12
M  V30 12 1 12 13
M  V30 13 2 13 14
M  V30 14 1 14 15
M  V30 15 2 15 16
M  V30 16 1 16 17
M  V30 17 1 17 18
M  V30 18 1 18 19
M  V30 19 2 19 20
M  V30 20 1 20 21
M  V30 21 2 21 22
M  V30 22 1 22 23
M  V30 23 2 23 24
M  V30 24 1 24 25
M  V30 25 2 25 26
M  V30 26 1 26 27
M  V30 27 1 27 28
M  V30 28 1 26 29
M  V30 29 2 29 30
M  V30 30 1 18 31
M  V30 31 1 31 32
M  V30 32 1 32 33
M  V30 33 1 33 34
M  V30 34 1 34 35
M  V30 35 1 35 36
M  V30 36 1 36 37
M  V30 37 1 37 38
M  V30 38 1 38 39
M  V30 39 1 39 40
M  V30 40 1 16 41
M  V30 41 2 41 42
M  V30 42 1 42 43
M  V30 43 2 43 44
M  V30 44 1 43 45
M  V30 45 2 45 46
M  V30 46 1 46 47
M  V30 47 2 47 48
M  V30 48 1 48 49
M  V30 49 2 49 50
M  V30 50 1 50 51
M  V30 51 2 51 52
M  V30 52 1 11 53
M  V30 53 2 53 54
M  V30 54 1 54 55
M  V30 55 2 55 56
M  V30 56 1 56 57
M  V30 57 2 57 58
M  V30 58 1 58 59
M  V30 59 2 59 60
M  V30 60 1 60 61
M  V30 61 1 61 62
M  V30 62 1 60 63
M  V30 63 2 63 64
M  V30 64 1 8 3
M  V30 65 1 42 13
M  V30 66 1 50 45
M  V30 67 1 64 53
M  V30 68 1 10 5
M  V30 69 1 30 19
M  V30 70 1 36 31
M  V30 71 1 51 41
M  V30 72 1 64 57
M  V30 73 1 30 23
M  V30 74 1 38 33
M  V30 75 1 1 65
M  V30 76 1 1 66
M  V30 77 1 1 67
M  V30 78 1 2 68
M  V30 79 1 2 69
M  V30 80 1 3 70 CFG=3
M  V30 81 1 4 71
M  V30 82 1 4 72
M  V30 83 1 6 73
M  V30 84 1 6 74
M  V30 85 1 7 75
M  V30 86 1 7 76
M  V30 87 1 8 77 CFG=3
M  V30 88 1 9 78
M  V30 89 1 9 79
M  V30 90 1 10 80 CFG=1
M  V30 91 1 11 81 CFG=1
M  V30 92 1 14 82
M  V30 93 1 15 83
M  V30 94 1 18 84 CFG=3
M  V30 95 1 20 85
M  V30 96 1 21 86
M  V30 97 1 24 87
M  V30 98 1 25 88
M  V30 99 1 28 89
M  V30 100 1 28 90
M  V30 101 1 28 91
M  V30 102 1 29 92
M  V30 103 1 31 93 CFG=1
M  V30 104 1 32 94
M  V30 105 1 32 95
M  V30 106 1 33 96 CFG=3
M  V30 107 1 34 97
M  V30 108 1 34 98
M  V30 109 1 35 99
M  V30 110 1 35 100
M  V30 111 1 37 101
M  V30 112 1 37 102
M  V30 113 1 38 103 CFG=3
M  V30 114 1 39 104
M  V30 115 1 39 105
M  V30 116 1 40 106
M  V30 117 1 40 107
M  V30 118 1 40 108
M  V30 119 1 46 109
M  V30 120 1 47 110
M  V30 121 1 48 111
M  V30 122 1 49 112
M  V30 123 1 54 113
M  V30 124 1 55 114
M  V30 125 1 58 115
M  V30 126 1 59 116
M  V30 127 1 62 117
M  V30 128 1 62 118
M  V30 129 1 62 119
M  V30 130 1 63 120
M  V30 END BOND
M  V30 END CTAB
M  END
>  <catalyst_id>  (1) 
ARCFYUDCVYJQRN_JAXLAYQKSA_NONE

>  <source_smiles>  (1) 
CC[C@H]1CN2CC[C@H]1C[C@@H]2[C@@H](Oc1ccc(O[C@@H](c2ccnc3ccc(OC)cc23)[C@H]2C[C@@H]3CCN2C[C@@H]3CC)c2c1C(=O)c1ccccc1C2=O)c1ccnc2ccc(OC)cc12

>  <axial_configuration>  (1) 
none

>  <inchikey>  (1) 
ARCFYUDCVYJQRN-JAXLAYQKSA-N

>  <build_source>  (1) 
smiles

>  <rdkit_version>  (1) 
2025.09.6

>  <random_seed>  (1) 
42

>  <generated_at>  (1) 
2026-05-19T12:29:52

$$$$
