catalyst407
     RDKit          3D

  0  0  0  0  0  0  0  0  0  0999 V3000
M  V30 BEGIN CTAB
M  V30 COUNTS 42 43 0 0 0
M  V30 BEGIN ATOM
M  V30 1 N 4.055822 -1.268132 -1.782452 0
M  V30 2 C 3.604337 -1.147280 -0.387264 0 CFG=1
M  V30 3 C 4.592262 -0.289689 0.422508 0
M  V30 4 C 4.520936 1.197831 0.080030 0
M  V30 5 C 3.098100 1.737390 0.185584 0
M  V30 6 C 2.113439 0.921737 -0.651262 0
M  V30 7 C 2.158060 -0.578315 -0.312681 0 CFG=2
M  V30 8 N 1.562185 -0.829600 1.011569 0
M  V30 9 C 0.240651 -0.778286 1.371294 0
M  V30 10 S -0.069847 -0.624194 3.004429 0
M  V30 11 N -0.650246 -0.902121 0.336325 0
M  V30 12 C -2.030837 -0.619323 0.262573 0
M  V30 13 C -2.754385 -1.244554 -0.760992 0
M  V30 14 C -4.127120 -1.003250 -0.937979 0
M  V30 15 C -4.893300 -1.716695 -2.025692 0
M  V30 16 F -5.394968 -2.909669 -1.606640 0
M  V30 17 F -4.129499 -1.993056 -3.119161 0
M  V30 18 F -5.956157 -1.000897 -2.486011 0
M  V30 19 C -4.776286 -0.116893 -0.067054 0
M  V30 20 C -4.066421 0.536087 0.951875 0
M  V30 21 C -4.752152 1.533363 1.855858 0
M  V30 22 F -4.286697 1.509029 3.134145 0
M  V30 23 F -4.594020 2.813480 1.420650 0
M  V30 24 F -6.096986 1.333486 1.945652 0
M  V30 25 C -2.689558 0.287320 1.094075 0
M  V30 26 H 4.985673 -1.688651 -1.800783 0
M  V30 27 H 4.163042 -0.347196 -2.205943 0
M  V30 28 H 3.603618 -2.160628 0.033326 0
M  V30 29 H 5.618484 -0.648710 0.274194 0
M  V30 30 H 4.383382 -0.415472 1.492399 0
M  V30 31 H 5.174844 1.759086 0.757488 0
M  V30 32 H 4.903192 1.367787 -0.933351 0
M  V30 33 H 2.782829 1.732698 1.236030 0
M  V30 34 H 3.078564 2.782713 -0.143381 0
M  V30 35 H 1.102543 1.320092 -0.504810 0
M  V30 36 H 2.349740 1.062125 -1.713291 0
M  V30 37 H 1.545790 -1.110640 -1.048707 0
M  V30 38 H 2.169443 -0.684421 1.811613 0
M  V30 39 H -0.292380 -1.463774 -0.424381 0
M  V30 40 H -2.255187 -1.943377 -1.431858 0
M  V30 41 H -5.843844 0.075071 -0.189213 0
M  V30 42 H -2.147046 0.847399 1.851289 0
M  V30 END ATOM
M  V30 BEGIN BOND
M  V30 1 1 1 2
M  V30 2 1 2 3
M  V30 3 1 3 4
M  V30 4 1 4 5
M  V30 5 1 5 6
M  V30 6 1 6 7
M  V30 7 1 7 8
M  V30 8 1 8 9
M  V30 9 2 9 10
M  V30 10 1 9 11
M  V30 11 1 11 12
M  V30 12 2 12 13
M  V30 13 1 13 14
M  V30 14 1 14 15
M  V30 15 1 15 16
M  V30 16 1 15 17
M  V30 17 1 15 18
M  V30 18 2 14 19
M  V30 19 1 19 20
M  V30 20 1 20 21
M  V30 21 1 21 22
M  V30 22 1 21 23
M  V30 23 1 21 24
M  V30 24 2 20 25
M  V30 25 1 7 2
M  V30 26 1 25 12
M  V30 27 1 1 26
M  V30 28 1 1 27
M  V30 29 1 2 28 CFG=1
M  V30 30 1 3 29
M  V30 31 1 3 30
M  V30 32 1 4 31
M  V30 33 1 4 32
M  V30 34 1 5 33
M  V30 35 1 5 34
M  V30 36 1 6 35
M  V30 37 1 6 36
M  V30 38 1 7 37 CFG=3
M  V30 39 1 8 38
M  V30 40 1 11 39
M  V30 41 1 13 40
M  V30 42 1 19 41
M  V30 43 1 25 42
M  V30 END BOND
M  V30 END CTAB
M  END
>  <catalyst_id>  (1) 
XZECTQVYSKGNEA_RYUDHWBXSA_NONE

>  <source_smiles>  (1) 
N[C@H]1CCCC[C@@H]1NC(=S)Nc1cc(C(F)(F)F)cc(C(F)(F)F)c1

>  <axial_configuration>  (1) 
none

>  <inchikey>  (1) 
XZECTQVYSKGNEA-RYUDHWBXSA-N

>  <build_source>  (1) 
smiles

>  <rdkit_version>  (1) 
2025.09.6

>  <random_seed>  (1) 
42

>  <generated_at>  (1) 
2026-05-19T12:37:16

$$$$
