catalyst352
     RDKit          3D

  0  0  0  0  0  0  0  0  0  0999 V3000
M  V30 BEGIN CTAB
M  V30 COUNTS 60 63 0 0 0
M  V30 BEGIN ATOM
M  V30 1 C 4.350501 3.617612 -1.527631 0
M  V30 2 C 3.399638 2.756885 -1.141680 0
M  V30 3 C 3.670655 1.495885 -0.354217 0 CFG=1
M  V30 4 C 2.857219 1.443391 0.968116 0
M  V30 5 N 2.001150 0.227577 1.049292 0
M  V30 6 C 2.889596 -0.954511 0.994513 0
M  V30 7 C 3.744548 -0.985534 -0.280475 0
M  V30 8 C 3.369203 0.212674 -1.168708 0 CFG=1
M  V30 9 C 1.860753 0.078336 -1.448635 0
M  V30 10 C 1.068940 0.255907 -0.129474 0 CFG=1
M  V30 11 C -0.173258 -0.698855 0.011527 0 CFG=2
M  V30 12 O 0.184053 -2.064686 -0.271614 0
M  V30 13 Si -0.544712 -3.327709 0.570619 0 VAL=4
M  V30 14 C -2.415553 -3.286742 0.402999 0
M  V30 15 C 0.066535 -4.969382 -0.122783 0
M  V30 16 C -0.110314 -3.272135 2.398738 0
M  V30 17 C -1.297971 -0.231473 -0.921982 0
M  V30 18 C -1.391297 -0.775687 -2.210998 0
M  V30 19 C -2.404028 -0.351899 -3.045314 0
M  V30 20 N -3.318939 0.572252 -2.699127 0
M  V30 21 C -3.237055 1.115115 -1.475436 0
M  V30 22 C -4.180253 2.073037 -1.133790 0
M  V30 23 C -4.180560 2.709758 0.111016 0
M  V30 24 C -3.209537 2.386403 1.046507 0
M  V30 25 O -3.080105 2.926249 2.295100 0
M  V30 26 C -4.032699 3.913034 2.671925 0
M  V30 27 C -2.251319 1.421982 0.721579 0
M  V30 28 C -2.242400 0.762041 -0.534016 0
M  V30 29 H 4.094750 4.510822 -2.089909 0
M  V30 30 H 5.398916 3.455090 -1.297680 0
M  V30 31 H 2.365368 2.976178 -1.400869 0
M  V30 32 H 4.736766 1.476681 -0.085699 0
M  V30 33 H 3.547481 1.451101 1.822325 0
M  V30 34 H 2.234422 2.337788 1.100444 0
M  V30 35 H 3.546144 -0.954267 1.874297 0
M  V30 36 H 2.313944 -1.878293 1.082162 0
M  V30 37 H 4.809541 -0.947206 -0.022320 0
M  V30 38 H 3.576669 -1.925369 -0.820035 0
M  V30 39 H 3.940471 0.188256 -2.103391 0
M  V30 40 H 1.673482 -0.897878 -1.909722 0
M  V30 41 H 1.539103 0.832622 -2.176214 0
M  V30 42 H 0.649481 1.272667 -0.141031 0
M  V30 43 H -0.523729 -0.635390 1.048805 0
M  V30 44 H -2.864587 -4.142320 0.916234 0
M  V30 45 H -2.710791 -3.327083 -0.649451 0
M  V30 46 H -2.826287 -2.373342 0.842826 0
M  V30 47 H 1.153087 -5.045910 -0.021705 0
M  V30 48 H -0.188307 -5.054961 -1.183136 0
M  V30 49 H -0.390611 -5.807172 0.411716 0
M  V30 50 H 0.970730 -3.353771 2.542604 0
M  V30 51 H -0.448148 -2.335605 2.851555 0
M  V30 52 H -0.588294 -4.100165 2.930662 0
M  V30 53 H -0.689337 -1.526273 -2.561015 0
M  V30 54 H -2.510485 -0.757619 -4.047213 0
M  V30 55 H -4.943030 2.336034 -1.863934 0
M  V30 56 H -4.949641 3.448993 0.306080 0
M  V30 57 H -3.791700 4.239347 3.688211 0
M  V30 58 H -5.045928 3.498035 2.686616 0
M  V30 59 H -3.973120 4.789099 2.017685 0
M  V30 60 H -1.499150 1.200387 1.475051 0
M  V30 END ATOM
M  V30 BEGIN BOND
M  V30 1 2 1 2
M  V30 2 1 2 3
M  V30 3 1 3 4
M  V30 4 1 4 5
M  V30 5 1 5 6
M  V30 6 1 6 7
M  V30 7 1 7 8
M  V30 8 1 8 9
M  V30 9 1 9 10
M  V30 10 1 10 11
M  V30 11 1 11 12
M  V30 12 1 12 13
M  V30 13 1 13 14
M  V30 14 1 13 15
M  V30 15 1 13 16
M  V30 16 1 11 17
M  V30 17 2 17 18
M  V30 18 1 18 19
M  V30 19 2 19 20
M  V30 20 1 20 21
M  V30 21 2 21 22
M  V30 22 1 22 23
M  V30 23 2 23 24
M  V30 24 1 24 25
M  V30 25 1 25 26
M  V30 26 1 24 27
M  V30 27 2 27 28
M  V30 28 1 8 3
M  V30 29 1 28 17
M  V30 30 1 10 5
M  V30 31 1 28 21
M  V30 32 1 1 29
M  V30 33 1 1 30
M  V30 34 1 2 31
M  V30 35 1 3 32 CFG=1
M  V30 36 1 4 33
M  V30 37 1 4 34
M  V30 38 1 6 35
M  V30 39 1 6 36
M  V30 40 1 7 37
M  V30 41 1 7 38
M  V30 42 1 8 39 CFG=3
M  V30 43 1 9 40
M  V30 44 1 9 41
M  V30 45 1 10 42 CFG=3
M  V30 46 1 11 43 CFG=1
M  V30 47 1 14 44
M  V30 48 1 14 45
M  V30 49 1 14 46
M  V30 50 1 15 47
M  V30 51 1 15 48
M  V30 52 1 15 49
M  V30 53 1 16 50
M  V30 54 1 16 51
M  V30 55 1 16 52
M  V30 56 1 18 53
M  V30 57 1 19 54
M  V30 58 1 22 55
M  V30 59 1 23 56
M  V30 60 1 26 57
M  V30 61 1 26 58
M  V30 62 1 26 59
M  V30 63 1 27 60
M  V30 END BOND
M  V30 END CTAB
M  END
>  <catalyst_id>  (1) 
UKECXMWGKYEZPW_BSWISCRUSA_NONE

>  <source_smiles>  (1) 
C=C[C@H]1CN2CC[C@H]1C[C@H]2[C@H](O[Si](C)(C)C)c1ccnc2ccc(OC)cc12

>  <axial_configuration>  (1) 
none

>  <inchikey>  (1) 
UKECXMWGKYEZPW-BSWISCRUSA-N

>  <build_source>  (1) 
smiles

>  <rdkit_version>  (1) 
2025.09.6

>  <random_seed>  (1) 
42

>  <generated_at>  (1) 
2026-05-19T12:30:42

$$$$
