catalyst144
     RDKit          3D

  0  0  0  0  0  0  0  0  0  0999 V3000
M  V30 BEGIN CTAB
M  V30 COUNTS 64 68 0 0 0
M  V30 BEGIN ATOM
M  V30 1 C 5.562640 -1.451221 2.999447 0
M  V30 2 C 4.387727 -1.051047 2.496086 0
M  V30 3 C 3.217085 -1.973660 2.249155 0 CFG=1
M  V30 4 C 1.933665 -1.496611 2.979174 0
M  V30 5 N 0.785525 -1.340094 2.047646 0
M  V30 6 C 0.527592 -2.646939 1.399421 0
M  V30 7 C 1.752887 -3.157517 0.626465 0
M  V30 8 C 2.894907 -2.131299 0.742488 0 CFG=1
M  V30 9 C 2.353232 -0.813152 0.158895 0
M  V30 10 C 1.165380 -0.312641 1.016602 0 CFG=1
M  V30 11 C -0.054220 0.148351 0.135971 0 CFG=1
M  V30 12 N -1.281194 0.192886 0.943574 0
M  V30 13 C -2.585230 0.258889 0.515790 0
M  V30 14 S -3.811103 -0.002544 1.629833 0
M  V30 15 C -2.865426 0.580833 -0.896528 0
M  V30 16 C -3.161757 1.905970 -1.237615 0
M  V30 17 C -3.418622 2.237381 -2.568543 0
M  V30 18 C -3.382322 1.250267 -3.555381 0
M  V30 19 C -3.092352 -0.073093 -3.216225 0
M  V30 20 C -2.849211 -0.411971 -1.883713 0
M  V30 21 O -2.508248 -1.700221 -1.564834 0
M  V30 22 C -3.657931 -2.554493 -1.598255 0
M  V30 23 C -3.297753 -3.843810 -0.883500 0
M  V30 24 C 0.232567 1.461329 -0.587995 0
M  V30 25 C 0.465975 1.390055 -1.970261 0
M  V30 26 C 0.731456 2.549567 -2.667676 0
M  V30 27 N 0.792129 3.765715 -2.097365 0
M  V30 28 C 0.569858 3.856950 -0.777320 0
M  V30 29 C 0.628182 5.121518 -0.207589 0
M  V30 30 C 0.408377 5.332130 1.153522 0
M  V30 31 C 0.121214 4.252427 1.972129 0
M  V30 32 C 0.059018 2.971067 1.424181 0
M  V30 33 C 0.282322 2.738111 0.043291 0
M  V30 34 H 6.368448 -0.740806 3.159389 0
M  V30 35 H 5.751817 -2.487614 3.261584 0
M  V30 36 H 4.259069 0.002959 2.256034 0
M  V30 37 H 3.469986 -2.969370 2.641154 0
M  V30 38 H 2.095659 -0.553391 3.517020 0
M  V30 39 H 1.664554 -2.224012 3.756581 0
M  V30 40 H -0.337482 -2.579764 0.729675 0
M  V30 41 H 0.239174 -3.381144 2.162375 0
M  V30 42 H 1.491013 -3.314036 -0.426896 0
M  V30 43 H 2.073094 -4.126718 1.026973 0
M  V30 44 H 3.771269 -2.471790 0.179697 0
M  V30 45 H 2.052548 -0.985264 -0.881483 0
M  V30 46 H 3.140076 -0.050599 0.133804 0
M  V30 47 H 1.510621 0.565611 1.577498 0
M  V30 48 H -0.239021 -0.633723 -0.610088 0
M  V30 49 H -1.166399 -0.206758 1.872909 0
M  V30 50 H -3.174255 2.680412 -0.474315 0
M  V30 51 H -3.635379 3.268866 -2.836420 0
M  V30 52 H -3.572889 1.516010 -4.592453 0
M  V30 53 H -3.045841 -0.831088 -3.992710 0
M  V30 54 H -3.924678 -2.775645 -2.638046 0
M  V30 55 H -4.515045 -2.088248 -1.096901 0
M  V30 56 H -4.140625 -4.540463 -0.886865 0
M  V30 57 H -2.439116 -4.324412 -1.364022 0
M  V30 58 H -3.009901 -3.641412 0.153564 0
M  V30 59 H 0.426592 0.445936 -2.504945 0
M  V30 60 H 0.907251 2.531029 -3.739223 0
M  V30 61 H 0.850420 5.972810 -0.847357 0
M  V30 62 H 0.459257 6.336658 1.564271 0
M  V30 63 H -0.059174 4.400209 3.033804 0
M  V30 64 H -0.177412 2.152621 2.098784 0
M  V30 END ATOM
M  V30 BEGIN BOND
M  V30 1 2 1 2
M  V30 2 1 2 3
M  V30 3 1 3 4
M  V30 4 1 4 5
M  V30 5 1 5 6
M  V30 6 1 6 7
M  V30 7 1 7 8
M  V30 8 1 8 9
M  V30 9 1 9 10
M  V30 10 1 10 11
M  V30 11 1 11 12
M  V30 12 1 12 13
M  V30 13 2 13 14
M  V30 14 1 13 15
M  V30 15 2 15 16
M  V30 16 1 16 17
M  V30 17 2 17 18
M  V30 18 1 18 19
M  V30 19 2 19 20
M  V30 20 1 20 21
M  V30 21 1 21 22
M  V30 22 1 22 23
M  V30 23 1 11 24
M  V30 24 2 24 25
M  V30 25 1 25 26
M  V30 26 2 26 27
M  V30 27 1 27 28
M  V30 28 2 28 29
M  V30 29 1 29 30
M  V30 30 2 30 31
M  V30 31 1 31 32
M  V30 32 2 32 33
M  V30 33 1 8 3
M  V30 34 1 20 15
M  V30 35 1 33 24
M  V30 36 1 10 5
M  V30 37 1 33 28
M  V30 38 1 1 34
M  V30 39 1 1 35
M  V30 40 1 2 36
M  V30 41 1 3 37 CFG=1
M  V30 42 1 4 38
M  V30 43 1 4 39
M  V30 44 1 6 40
M  V30 45 1 6 41
M  V30 46 1 7 42
M  V30 47 1 7 43
M  V30 48 1 8 44 CFG=3
M  V30 49 1 9 45
M  V30 50 1 9 46
M  V30 51 1 10 47 CFG=1
M  V30 52 1 11 48 CFG=3
M  V30 53 1 12 49
M  V30 54 1 16 50
M  V30 55 1 17 51
M  V30 56 1 18 52
M  V30 57 1 19 53
M  V30 58 1 22 54
M  V30 59 1 22 55
M  V30 60 1 23 56
M  V30 61 1 23 57
M  V30 62 1 23 58
M  V30 63 1 25 59
M  V30 64 1 26 60
M  V30 65 1 29 61
M  V30 66 1 30 62
M  V30 67 1 31 63
M  V30 68 1 32 64
M  V30 END BOND
M  V30 END CTAB
M  END
>  <catalyst_id>  (1) 
JYDYJYKPGXWOBT_RZBPVFHSSA_NONE

>  <source_smiles>  (1) 
C=C[C@H]1CN2CC[C@H]1C[C@H]2[C@@H](NC(=S)c1ccccc1OCC)c1ccnc2ccccc12

>  <axial_configuration>  (1) 
none

>  <inchikey>  (1) 
JYDYJYKPGXWOBT-RZBPVFHSSA-N

>  <build_source>  (1) 
smiles

>  <rdkit_version>  (1) 
2025.09.6

>  <random_seed>  (1) 
42

>  <generated_at>  (1) 
2026-05-19T12:34:46

$$$$
