catalyst127
     RDKit          3D

  0  0  0  0  0  0  0  0  0  0999 V3000
M  V30 BEGIN CTAB
M  V30 COUNTS 35 37 0 0 0
M  V30 BEGIN ATOM
M  V30 1 O -5.726692 1.182624 0.727130 0
M  V30 2 P -4.745789 0.956169 -0.373511 0 CFG=2
M  V30 3 O -4.796018 2.057368 -1.529323 0
M  V30 4 O -4.873018 -0.440026 -1.152771 0
M  V30 5 C -4.464102 -1.578551 -0.415639 0
M  V30 6 C -3.004531 -1.435876 0.005163 0
M  V30 7 C -2.796331 -0.165063 0.839763 0 CFG=1
M  V30 8 C -1.337050 0.022258 1.277781 0
M  V30 9 O -0.473639 -0.057606 0.141367 0
M  V30 10 C 0.869227 0.072426 0.363743 0
M  V30 11 C 1.479093 0.295233 1.595914 0
M  V30 12 C 2.871546 0.405949 1.680143 0
M  V30 13 C 3.674951 0.296591 0.534833 0
M  V30 14 C 5.073478 0.405540 0.604557 0
M  V30 15 C 5.855383 0.295048 -0.546440 0
M  V30 16 C 5.249839 0.074859 -1.780081 0
M  V30 17 C 3.861076 -0.035554 -1.865450 0
M  V30 18 C 3.060453 0.072843 -0.716585 0
M  V30 19 C 1.661569 -0.035713 -0.783021 0
M  V30 20 O -3.207145 0.970818 0.081045 0
M  V30 21 H -4.882906 2.951275 -1.155753 0
M  V30 22 H -5.118049 -1.700165 0.454738 0
M  V30 23 H -4.586817 -2.459219 -1.053410 0
M  V30 24 H -2.400238 -1.373419 -0.908180 0
M  V30 25 H -2.687593 -2.320982 0.566741 0
M  V30 26 H -3.417593 -0.205611 1.743110 0
M  V30 27 H -1.078704 -0.767818 1.993140 0
M  V30 28 H -1.230384 1.008054 1.746531 0
M  V30 29 H 0.906307 0.391103 2.511730 0
M  V30 30 H 3.326316 0.580766 2.652838 0
M  V30 31 H 5.564952 0.578405 1.559240 0
M  V30 32 H 6.936657 0.381704 -0.478839 0
M  V30 33 H 5.857028 -0.010662 -2.677447 0
M  V30 34 H 3.405154 -0.206793 -2.838148 0
M  V30 35 H 1.173574 -0.205976 -1.740533 0
M  V30 END ATOM
M  V30 BEGIN BOND
M  V30 1 2 1 2
M  V30 2 1 2 3 CFG=3
M  V30 3 1 2 4
M  V30 4 1 4 5
M  V30 5 1 5 6
M  V30 6 1 6 7
M  V30 7 1 7 8
M  V30 8 1 8 9
M  V30 9 1 9 10
M  V30 10 2 10 11
M  V30 11 1 11 12
M  V30 12 2 12 13
M  V30 13 1 13 14
M  V30 14 2 14 15
M  V30 15 1 15 16
M  V30 16 2 16 17
M  V30 17 1 17 18
M  V30 18 2 18 19
M  V30 19 1 7 20
M  V30 20 1 20 2
M  V30 21 1 19 10
M  V30 22 1 18 13
M  V30 23 1 3 21
M  V30 24 1 5 22
M  V30 25 1 5 23
M  V30 26 1 6 24
M  V30 27 1 6 25
M  V30 28 1 7 26 CFG=1
M  V30 29 1 8 27
M  V30 30 1 8 28
M  V30 31 1 11 29
M  V30 32 1 12 30
M  V30 33 1 14 31
M  V30 34 1 15 32
M  V30 35 1 16 33
M  V30 36 1 17 34
M  V30 37 1 19 35
M  V30 END BOND
M  V30 END CTAB
M  END
>  <catalyst_id>  (1) 
JCLJJGCUDHCDOR_AWEZNQCLSA_NONE

>  <source_smiles>  (1) 
O=P1(O)OCC[C@@H](COc2ccc3ccccc3c2)O1

>  <axial_configuration>  (1) 
none

>  <inchikey>  (1) 
JCLJJGCUDHCDOR-AWEZNQCLSA-N

>  <build_source>  (1) 
smiles

>  <rdkit_version>  (1) 
2025.09.6

>  <random_seed>  (1) 
42

>  <generated_at>  (1) 
2026-05-19T12:40:26

$$$$
