catalyst176
     RDKit          3D

  0  0  0  0  0  0  0  0  0  0999 V3000
M  V30 BEGIN CTAB
M  V30 COUNTS 77 83 0 0 0
M  V30 BEGIN ATOM
M  V30 1 O 4.679388 2.542541 1.547274 0
M  V30 2 S 4.248469 1.163617 1.495679 0
M  V30 3 O 5.128289 0.071121 1.844563 0
M  V30 4 N 2.834560 1.046152 2.409091 0
M  V30 5 C 2.331699 -0.317491 2.751024 0 CFG=1
M  V30 6 C 2.863278 -0.721004 4.130132 0
M  V30 7 C 2.261581 -2.043710 4.598760 0
M  V30 8 C 0.735473 -2.010070 4.589157 0
M  V30 9 C 0.188703 -1.613400 3.217334 0
M  V30 10 C 0.770490 -0.266948 2.761875 0 CFG=2
M  V30 11 N 0.277123 0.268934 1.471546 0
M  V30 12 C -0.982484 1.020925 1.631931 0
M  V30 13 C -1.408499 1.681006 0.334637 0
M  V30 14 C -1.204966 3.052360 0.154329 0
M  V30 15 C -1.473743 3.643550 -1.075238 0
M  V30 16 C -1.901192 2.875964 -2.164472 0
M  V30 17 C -2.100373 3.492454 -3.410970 0
M  V30 18 C -2.478010 2.751066 -4.527965 0
M  V30 19 C -2.653477 1.380307 -4.413655 0
M  V30 20 C -2.465245 0.755933 -3.178347 0
M  V30 21 C -2.107012 1.480601 -2.014149 0
M  V30 22 C -1.915366 0.885468 -0.725935 0
M  V30 23 C -2.136822 -0.570346 -0.466884 0
M  V30 24 C -1.036910 -1.343983 -0.004502 0
M  V30 25 C -1.176389 -2.725976 0.157138 0
M  V30 26 C -2.404356 -3.341394 -0.065146 0
M  V30 27 C -3.530429 -2.592216 -0.423275 0
M  V30 28 C -4.770227 -3.233789 -0.584701 0
M  V30 29 C -5.917034 -2.512043 -0.907872 0
M  V30 30 C -5.839403 -1.136522 -1.066266 0
M  V30 31 C -4.611627 -0.487578 -0.915190 0
M  V30 32 C -3.419371 -1.191281 -0.611444 0
M  V30 33 C 0.285157 -0.674078 0.329920 0
M  V30 34 C 3.649883 0.879262 -0.159944 0
M  V30 35 C 3.773689 -0.386474 -0.739622 0
M  V30 36 C 3.318715 -0.606295 -2.049646 0
M  V30 37 C 3.412188 -1.988571 -2.654396 0
M  V30 38 F 4.669453 -2.503372 -2.590173 0
M  V30 39 F 2.607518 -2.877830 -2.008663 0
M  V30 40 F 3.050704 -2.035891 -3.965009 0
M  V30 41 C 2.762068 0.468523 -2.767120 0
M  V30 42 C 2.655507 1.750943 -2.197447 0
M  V30 43 C 2.115036 2.909702 -3.006515 0
M  V30 44 F 3.098733 3.541883 -3.704197 0
M  V30 45 F 1.189888 2.531480 -3.928717 0
M  V30 46 F 1.524440 3.869184 -2.243198 0
M  V30 47 C 3.110758 1.948495 -0.885040 0
M  V30 48 H 2.085107 1.590595 1.967261 0
M  V30 49 H 2.664983 -1.045786 2.003510 0
M  V30 50 H 2.633207 0.062249 4.864405 0
M  V30 51 H 3.955409 -0.808382 4.108120 0
M  V30 52 H 2.617171 -2.271116 5.610064 0
M  V30 53 H 2.612508 -2.853695 3.947450 0
M  V30 54 H 0.379815 -1.299057 5.344928 0
M  V30 55 H 0.344961 -2.995073 4.868926 0
M  V30 56 H 0.450659 -2.406619 2.510334 0
M  V30 57 H -0.904685 -1.562110 3.267603 0
M  V30 58 H 0.509019 0.469990 3.536828 0
M  V30 59 H -1.794197 0.396229 2.026809 0
M  V30 60 H -0.835035 1.809893 2.381350 0
M  V30 61 H -0.816759 3.666909 0.963221 0
M  V30 62 H -1.301707 4.712423 -1.188832 0
M  V30 63 H -1.946130 4.563571 -3.526171 0
M  V30 64 H -2.620067 3.243035 -5.486276 0
M  V30 65 H -2.933667 0.790257 -5.282244 0
M  V30 66 H -2.598402 -0.323306 -3.138412 0
M  V30 67 H -0.331926 -3.337483 0.465952 0
M  V30 68 H -2.480859 -4.418201 0.073622 0
M  V30 69 H -4.854728 -4.310338 -0.450002 0
M  V30 70 H -6.868694 -3.023181 -1.025256 0
M  V30 71 H -6.730012 -0.561546 -1.306049 0
M  V30 72 H -4.598590 0.594248 -1.034260 0
M  V30 73 H 1.065626 -1.433684 0.455156 0
M  V30 74 H 0.606487 -0.124065 -0.562888 0
M  V30 75 H 4.220351 -1.206153 -0.176238 0
M  V30 76 H 2.408772 0.309254 -3.788490 0
M  V30 77 H 3.051530 2.939933 -0.434570 0
M  V30 END ATOM
M  V30 BEGIN BOND
M  V30 1 2 1 2
M  V30 2 2 2 3
M  V30 3 1 2 4
M  V30 4 1 4 5
M  V30 5 1 5 6
M  V30 6 1 6 7
M  V30 7 1 7 8
M  V30 8 1 8 9
M  V30 9 1 9 10
M  V30 10 1 10 11
M  V30 11 1 11 12
M  V30 12 1 12 13
M  V30 13 2 13 14
M  V30 14 1 14 15
M  V30 15 2 15 16
M  V30 16 1 16 17
M  V30 17 2 17 18
M  V30 18 1 18 19
M  V30 19 2 19 20
M  V30 20 1 20 21
M  V30 21 2 21 22
M  V30 22 1 22 23
M  V30 23 2 23 24
M  V30 24 1 24 25
M  V30 25 2 25 26
M  V30 26 1 26 27
M  V30 27 2 27 28
M  V30 28 1 28 29
M  V30 29 2 29 30
M  V30 30 1 30 31
M  V30 31 2 31 32
M  V30 32 1 24 33
M  V30 33 1 2 34
M  V30 34 2 34 35
M  V30 35 1 35 36
M  V30 36 1 36 37
M  V30 37 1 37 38
M  V30 38 1 37 39
M  V30 39 1 37 40
M  V30 40 2 36 41
M  V30 41 1 41 42
M  V30 42 1 42 43
M  V30 43 1 43 44
M  V30 44 1 43 45
M  V30 45 1 43 46
M  V30 46 2 42 47
M  V30 47 1 10 5
M  V30 48 1 33 11
M  V30 49 1 47 34
M  V30 50 1 22 13
M  V30 51 1 32 23
M  V30 52 1 21 16
M  V30 53 1 32 27
M  V30 54 1 4 48
M  V30 55 1 5 49 CFG=3
M  V30 56 1 6 50
M  V30 57 1 6 51
M  V30 58 1 7 52
M  V30 59 1 7 53
M  V30 60 1 8 54
M  V30 61 1 8 55
M  V30 62 1 9 56
M  V30 63 1 9 57
M  V30 64 1 10 58 CFG=1
M  V30 65 1 12 59
M  V30 66 1 12 60
M  V30 67 1 14 61
M  V30 68 1 15 62
M  V30 69 1 17 63
M  V30 70 1 18 64
M  V30 71 1 19 65
M  V30 72 1 20 66
M  V30 73 1 25 67
M  V30 74 1 26 68
M  V30 75 1 28 69
M  V30 76 1 29 70
M  V30 77 1 30 71
M  V30 78 1 31 72
M  V30 79 1 33 73
M  V30 80 1 33 74
M  V30 81 1 35 75
M  V30 82 1 41 76
M  V30 83 1 47 77
M  V30 END BOND
M  V30 END CTAB
M  END
>  <catalyst_id>  (1) 
LNJNQFJHRBUWOD_ACHIHNKUSA_R

>  <source_smiles>  (1) 
O=S(=O)(N[C@H]1CCCC[C@@H]1N1Cc2ccc3ccccc3c2-c2c(ccc3ccccc23)C1)c1cc(C(F)(F)F)cc(C(F)(F)F)c1

>  <axial_configuration>  (1) 
R

>  <inchikey>  (1) 
LNJNQFJHRBUWOD-ACHIHNKUSA-N

>  <build_source>  (1) 
smiles+axial_bridged

>  <final_biaryl_angle_deg>  (1) 
119.67

>  <n_valid_conformers>  (1) 
12

>  <rdkit_version>  (1) 
2025.09.6

>  <random_seed>  (1) 
42

>  <generated_at>  (1) 
2026-05-19T12:30:40

$$$$
