catalyst38
     RDKit          3D

  0  0  0  0  0  0  0  0  0  0999 V3000
M  V30 BEGIN CTAB
M  V30 COUNTS 70 75 0 0 0
M  V30 BEGIN ATOM
M  V30 1 C -6.134338 -2.890847 -1.793088 0
M  V30 2 C -5.070534 -2.265212 -1.272697 0
M  V30 3 C -3.954547 -2.968836 -0.536724 0 CFG=1
M  V30 4 C -2.564932 -2.674694 -1.163025 0
M  V30 5 N -1.610305 -2.108360 -0.171483 0
M  V30 6 C -1.446378 -3.088470 0.927733 0
M  V30 7 C -2.782609 -3.428511 1.605022 0
M  V30 8 C -3.906585 -2.593580 0.965527 0 CFG=1
M  V30 9 C -3.507297 -1.117891 1.149628 0
M  V30 10 C -2.209007 -0.830683 0.358134 0 CFG=1
M  V30 11 C -1.181946 0.032079 1.188224 0 CFG=1
M  V30 12 N 0.158555 -0.075288 0.583543 0
M  V30 13 C 1.283458 0.239400 1.194653 0
M  V30 14 C 2.627830 0.182933 0.911694 0
M  V30 15 N 3.344435 -0.190597 -0.127719 0
M  V30 16 C 4.734852 -0.373971 -0.289727 0
M  V30 17 C 5.631778 -0.519409 0.771360 0
M  V30 18 C 7.008038 -0.654167 0.544870 0
M  V30 19 C 7.526163 -0.631921 -0.755516 0
M  V30 20 C 9.004973 -0.797891 -1.001220 0
M  V30 21 F 9.776637 -0.349052 0.027671 0
M  V30 22 F 9.439721 -0.132455 -2.108316 0
M  V30 23 F 9.353939 -2.100762 -1.189566 0
M  V30 24 C 6.635238 -0.487438 -1.825056 0
M  V30 25 C 5.261966 -0.353460 -1.591454 0
M  V30 26 C 2.977351 0.795470 2.217227 0
M  V30 27 O 3.937314 1.169965 2.847557 0
M  V30 28 C 1.535488 0.784403 2.550766 0
M  V30 29 O 0.922953 1.057851 3.554280 0
M  V30 30 C -1.620846 1.488797 1.316696 0
M  V30 31 C -2.025631 1.922029 2.588661 0
M  V30 32 C -2.455338 3.222113 2.751589 0
M  V30 33 N -2.524473 4.114821 1.748306 0
M  V30 34 C -2.128896 3.726487 0.527814 0
M  V30 35 C -2.191706 4.667201 -0.489842 0
M  V30 36 C -1.800416 4.378091 -1.800277 0
M  V30 37 C -1.327769 3.112547 -2.108990 0
M  V30 38 O -0.906940 2.684284 -3.336746 0
M  V30 39 C -0.933020 3.637333 -4.392596 0
M  V30 40 C -1.259931 2.152082 -1.095873 0
M  V30 41 C -1.659232 2.423710 0.238907 0
M  V30 42 H -6.266020 -3.965361 -1.711016 0
M  V30 43 H -6.905389 -2.332428 -2.315981 0
M  V30 44 H -4.996185 -1.185556 -1.391246 0
M  V30 45 H -4.123571 -4.053287 -0.603470 0
M  V30 46 H -2.144164 -3.603577 -1.570539 0
M  V30 47 H -2.639544 -1.995821 -2.022540 0
M  V30 48 H -0.734425 -2.711499 1.671091 0
M  V30 49 H -0.988134 -4.004395 0.533591 0
M  V30 50 H -2.720151 -3.219081 2.679628 0
M  V30 51 H -2.997945 -4.498238 1.496854 0
M  V30 52 H -4.862567 -2.800047 1.459618 0
M  V30 53 H -4.308317 -0.455652 0.801490 0
M  V30 54 H -3.377927 -0.914629 2.219578 0
M  V30 55 H -2.490977 -0.242573 -0.524038 0
M  V30 56 H -1.114597 -0.418483 2.188083 0
M  V30 57 H 0.146994 -0.777456 -0.164468 0
M  V30 58 H 2.845736 -0.420812 -0.986717 0
M  V30 59 H 5.286791 -0.560614 1.799325 0
M  V30 60 H 7.673321 -0.773622 1.399388 0
M  V30 61 H 7.005727 -0.468884 -2.849006 0
M  V30 62 H 4.602904 -0.220608 -2.446920 0
M  V30 63 H -1.990658 1.264251 3.452334 0
M  V30 64 H -2.764552 3.592206 3.724951 0
M  V30 65 H -2.556192 5.665130 -0.253924 0
M  V30 66 H -1.877134 5.165775 -2.541579 0
M  V30 67 H -0.558481 3.145730 -5.295618 0
M  V30 68 H -0.273645 4.484486 -4.176513 0
M  V30 69 H -1.955409 3.972813 -4.595598 0
M  V30 70 H -0.873501 1.174131 -1.368684 0
M  V30 END ATOM
M  V30 BEGIN BOND
M  V30 1 2 1 2
M  V30 2 1 2 3
M  V30 3 1 3 4
M  V30 4 1 4 5
M  V30 5 1 5 6
M  V30 6 1 6 7
M  V30 7 1 7 8
M  V30 8 1 8 9
M  V30 9 1 9 10
M  V30 10 1 10 11
M  V30 11 1 11 12
M  V30 12 1 12 13
M  V30 13 2 13 14
M  V30 14 1 14 15
M  V30 15 1 15 16
M  V30 16 2 16 17
M  V30 17 1 17 18
M  V30 18 2 18 19
M  V30 19 1 19 20
M  V30 20 1 20 21
M  V30 21 1 20 22
M  V30 22 1 20 23
M  V30 23 1 19 24
M  V30 24 2 24 25
M  V30 25 1 14 26
M  V30 26 2 26 27
M  V30 27 1 26 28
M  V30 28 2 28 29
M  V30 29 1 11 30
M  V30 30 2 30 31
M  V30 31 1 31 32
M  V30 32 2 32 33
M  V30 33 1 33 34
M  V30 34 2 34 35
M  V30 35 1 35 36
M  V30 36 2 36 37
M  V30 37 1 37 38
M  V30 38 1 38 39
M  V30 39 1 37 40
M  V30 40 2 40 41
M  V30 41 1 8 3
M  V30 42 1 28 13
M  V30 43 1 41 30
M  V30 44 1 10 5
M  V30 45 1 25 16
M  V30 46 1 41 34
M  V30 47 1 1 42
M  V30 48 1 1 43
M  V30 49 1 2 44
M  V30 50 1 3 45 CFG=1
M  V30 51 1 4 46
M  V30 52 1 4 47
M  V30 53 1 6 48
M  V30 54 1 6 49
M  V30 55 1 7 50
M  V30 56 1 7 51
M  V30 57 1 8 52 CFG=1
M  V30 58 1 9 53
M  V30 59 1 9 54
M  V30 60 1 10 55 CFG=3
M  V30 61 1 11 56 CFG=1
M  V30 62 1 12 57
M  V30 63 1 15 58
M  V30 64 1 17 59
M  V30 65 1 18 60
M  V30 66 1 24 61
M  V30 67 1 25 62
M  V30 68 1 31 63
M  V30 69 1 32 64
M  V30 70 1 35 65
M  V30 71 1 36 66
M  V30 72 1 39 67
M  V30 73 1 39 68
M  V30 74 1 39 69
M  V30 75 1 40 70
M  V30 END BOND
M  V30 END CTAB
M  END
>  <catalyst_id>  (1) 
CXSJHIJBMDWYPB_JZWJADFXSA_NONE

>  <source_smiles>  (1) 
C=C[C@H]1CN2CC[C@H]1C[C@H]2[C@@H](Nc1c(Nc2ccc(C(F)(F)F)cc2)c(=O)c1=O)c1ccnc2ccc(OC)cc12

>  <axial_configuration>  (1) 
none

>  <inchikey>  (1) 
CXSJHIJBMDWYPB-JZWJADFXSA-N

>  <build_source>  (1) 
smiles

>  <rdkit_version>  (1) 
2025.09.6

>  <random_seed>  (1) 
42

>  <generated_at>  (1) 
2026-05-19T12:36:50

$$$$
