catalyst256
     RDKit          3D

  0  0  0  0  0  0  0  0  0  0999 V3000
M  V30 BEGIN CTAB
M  V30 COUNTS 113 120 0 0 0
M  V30 BEGIN ATOM
M  V30 1 C -4.628984 4.101998 4.083023 0
M  V30 2 C -5.264278 2.804122 3.690589 0
M  V30 3 O -6.426878 2.679730 3.331057 0
M  V30 4 O -4.367688 1.788665 3.806028 0
M  V30 5 C -4.851493 0.486292 3.422537 0
M  V30 6 C -4.901158 0.337264 1.892026 0 CFG=1
M  V30 7 O -3.567402 0.484908 1.387710 0
M  V30 8 C -3.546106 0.503497 -0.034618 0 CFG=1
M  V30 9 N -2.201432 0.889907 -0.419685 0
M  V30 10 C -1.686448 2.147483 -0.411920 0
M  V30 11 S -2.484059 3.533821 0.075834 0
M  V30 12 N -0.409627 2.299847 -0.845151 0
M  V30 13 C 0.512941 1.352513 -1.510817 0 CFG=1
M  V30 14 C 0.265379 1.291353 -3.019404 0
M  V30 15 C 0.680446 0.167816 -3.753848 0
M  V30 16 C 0.485380 0.093604 -5.135486 0
M  V30 17 C -0.135180 1.140079 -5.810070 0
M  V30 18 C -0.557834 2.261566 -5.103453 0
M  V30 19 C -0.358200 2.337720 -3.722385 0
M  V30 20 C 2.019353 1.637018 -1.055712 0 CFG=2
M  V30 21 C 2.464166 3.020864 -1.567677 0
M  V30 22 C 2.462350 4.123147 -0.695090 0
M  V30 23 C 2.846546 5.387596 -1.144305 0
M  V30 24 C 3.242027 5.568079 -2.467774 0
M  V30 25 C 3.258943 4.484409 -3.342587 0
M  V30 26 C 2.875934 3.219104 -2.895813 0
M  V30 27 N 3.040203 0.563895 -1.321046 0
M  V30 28 C 2.653414 -0.753058 -0.753096 0
M  V30 29 C 2.858640 -0.879749 0.745927 0
M  V30 30 C 1.759877 -0.811495 1.607631 0
M  V30 31 C 1.953095 -0.805604 2.984913 0
M  V30 32 C 3.242228 -0.822605 3.531773 0
M  V30 33 C 3.406131 -0.756253 4.925717 0
M  V30 34 C 4.674767 -0.726709 5.500702 0
M  V30 35 C 5.797496 -0.753353 4.686875 0
M  V30 36 C 5.649175 -0.826001 3.299794 0
M  V30 37 C 4.375991 -0.886994 2.680786 0
M  V30 38 C 4.177281 -0.980567 1.267220 0
M  V30 39 C 5.303098 -1.104533 0.289035 0
M  V30 40 C 5.416563 -0.113350 -0.724978 0
M  V30 41 C 6.451009 -0.179900 -1.663209 0
M  V30 42 C 7.366533 -1.226323 -1.624256 0
M  V30 43 C 7.245306 -2.254578 -0.682215 0
M  V30 44 C 8.154567 -3.325883 -0.704779 0
M  V30 45 C 8.034815 -4.390814 0.185090 0
M  V30 46 C 6.995604 -4.402830 1.102996 0
M  V30 47 C 6.088824 -3.340648 1.140548 0
M  V30 48 C 6.196528 -2.224560 0.273087 0
M  V30 49 C 4.381432 0.998165 -0.826700 0
M  V30 50 C -3.942006 -0.893969 -0.546036 0 CFG=2
M  V30 51 O -3.966062 -0.933769 -1.992450 0
M  V30 52 C -2.777456 -1.231369 -2.586391 0
M  V30 53 C -2.928277 -1.244264 -4.075401 0
M  V30 54 O -1.729422 -1.433319 -1.986202 0
M  V30 55 C -5.351301 -1.240746 -0.036010 0 CFG=1
M  V30 56 O -5.570205 -2.639635 -0.362315 0
M  V30 57 C -6.824352 -3.003641 -0.737691 0
M  V30 58 C -6.865618 -4.471227 -1.032790 0
M  V30 59 O -7.786733 -2.254217 -0.816840 0
M  V30 60 C -5.470999 -1.033458 1.489529 0 CFG=2
M  V30 61 O -6.860399 -1.055526 1.884215 0
M  V30 62 C -7.360839 -2.232861 2.342486 0
M  V30 63 C -8.810725 -2.077689 2.683303 0
M  V30 64 O -6.726460 -3.270951 2.461843 0
M  V30 65 H -5.332836 4.919193 3.901285 0
M  V30 66 H -4.376691 4.083402 5.146009 0
M  V30 67 H -3.735305 4.277045 3.478953 0
M  V30 68 H -4.140507 -0.233315 3.843767 0
M  V30 69 H -5.824260 0.299808 3.892171 0
M  V30 70 H -5.520991 1.142487 1.478395 0
M  V30 71 H -4.238463 1.259116 -0.426182 0
M  V30 72 H -1.611328 0.127228 -0.723237 0
M  V30 73 H -0.128547 3.272897 -0.895079 0
M  V30 74 H 0.232186 0.377308 -1.114934 0
M  V30 75 H 1.167212 -0.667417 -3.257384 0
M  V30 76 H 0.822333 -0.783306 -5.682276 0
M  V30 77 H -0.284063 1.084803 -6.884906 0
M  V30 78 H -1.036657 3.085999 -5.625635 0
M  V30 79 H -0.686624 3.237480 -3.207363 0
M  V30 80 H 1.966941 1.728487 0.039884 0
M  V30 81 H 2.160868 4.004604 0.344157 0
M  V30 82 H 2.838599 6.232376 -0.460172 0
M  V30 83 H 3.541028 6.552867 -2.816843 0
M  V30 84 H 3.571121 4.621206 -4.374553 0
M  V30 85 H 2.904640 2.381574 -3.590759 0
M  V30 86 H 3.221986 -1.542279 -1.264564 0
M  V30 87 H 1.626316 -1.028089 -1.005340 0
M  V30 88 H 0.747961 -0.743464 1.214788 0
M  V30 89 H 1.080240 -0.749222 3.632769 0
M  V30 90 H 2.537701 -0.715397 5.580222 0
M  V30 91 H 4.783171 -0.670352 6.580340 0
M  V30 92 H 6.791885 -0.715142 5.123709 0
M  V30 93 H 6.555509 -0.827882 2.697240 0
M  V30 94 H 6.541949 0.578082 -2.438034 0
M  V30 95 H 8.162623 -1.248719 -2.365739 0
M  V30 96 H 8.964384 -3.344331 -1.431403 0
M  V30 97 H 8.743817 -5.213319 0.150427 0
M  V30 98 H 6.881961 -5.236170 1.791215 0
M  V30 99 H 5.278874 -3.400064 1.864782 0
M  V30 100 H 4.783968 1.758169 -1.506266 0
M  V30 101 H 4.313041 1.489887 0.154220 0
M  V30 102 H -3.251103 -1.658600 -0.162831 0
M  V30 103 H -2.053805 -1.723507 -4.523591 0
M  V30 104 H -3.810287 -1.826155 -4.356268 0
M  V30 105 H -3.012850 -0.220282 -4.445927 0
M  V30 106 H -6.087388 -0.622963 -0.567171 0
M  V30 107 H -6.171664 -4.705773 -1.843853 0
M  V30 108 H -6.612365 -5.037383 -0.133038 0
M  V30 109 H -7.875493 -4.749103 -1.347730 0
M  V30 110 H -4.905658 -1.822620 2.003102 0
M  V30 111 H -9.371044 -1.778806 1.793915 0
M  V30 112 H -9.204045 -3.035086 3.036721 0
M  V30 113 H -8.926763 -1.337290 3.478674 0
M  V30 END ATOM
M  V30 BEGIN BOND
M  V30 1 1 1 2
M  V30 2 2 2 3
M  V30 3 1 2 4
M  V30 4 1 4 5
M  V30 5 1 5 6
M  V30 6 1 6 7
M  V30 7 1 7 8
M  V30 8 1 8 9
M  V30 9 1 9 10
M  V30 10 2 10 11
M  V30 11 1 10 12
M  V30 12 1 12 13
M  V30 13 1 13 14
M  V30 14 2 14 15
M  V30 15 1 15 16
M  V30 16 2 16 17
M  V30 17 1 17 18
M  V30 18 2 18 19
M  V30 19 1 13 20
M  V30 20 1 20 21
M  V30 21 2 21 22
M  V30 22 1 22 23
M  V30 23 2 23 24
M  V30 24 1 24 25
M  V30 25 2 25 26
M  V30 26 1 20 27
M  V30 27 1 27 28
M  V30 28 1 28 29
M  V30 29 2 29 30
M  V30 30 1 30 31
M  V30 31 2 31 32
M  V30 32 1 32 33
M  V30 33 2 33 34
M  V30 34 1 34 35
M  V30 35 2 35 36
M  V30 36 1 36 37
M  V30 37 2 37 38
M  V30 38 1 38 39
M  V30 39 2 39 40
M  V30 40 1 40 41
M  V30 41 2 41 42
M  V30 42 1 42 43
M  V30 43 2 43 44
M  V30 44 1 44 45
M  V30 45 2 45 46
M  V30 46 1 46 47
M  V30 47 2 47 48
M  V30 48 1 40 49
M  V30 49 1 8 50
M  V30 50 1 50 51
M  V30 51 1 51 52
M  V30 52 1 52 53
M  V30 53 2 52 54
M  V30 54 1 50 55
M  V30 55 1 55 56
M  V30 56 1 56 57
M  V30 57 1 57 58
M  V30 58 2 57 59
M  V30 59 1 55 60
M  V30 60 1 60 61
M  V30 61 1 61 62
M  V30 62 1 62 63
M  V30 63 2 62 64
M  V30 64 1 60 6
M  V30 65 1 19 14
M  V30 66 1 26 21
M  V30 67 1 49 27
M  V30 68 1 38 29
M  V30 69 1 48 39
M  V30 70 1 37 32
M  V30 71 1 48 43
M  V30 72 1 1 65
M  V30 73 1 1 66
M  V30 74 1 1 67
M  V30 75 1 5 68
M  V30 76 1 5 69
M  V30 77 1 6 70 CFG=3
M  V30 78 1 8 71 CFG=3
M  V30 79 1 9 72
M  V30 80 1 12 73
M  V30 81 1 13 74 CFG=1
M  V30 82 1 15 75
M  V30 83 1 16 76
M  V30 84 1 17 77
M  V30 85 1 18 78
M  V30 86 1 19 79
M  V30 87 1 20 80 CFG=1
M  V30 88 1 22 81
M  V30 89 1 23 82
M  V30 90 1 24 83
M  V30 91 1 25 84
M  V30 92 1 26 85
M  V30 93 1 28 86
M  V30 94 1 28 87
M  V30 95 1 30 88
M  V30 96 1 31 89
M  V30 97 1 33 90
M  V30 98 1 34 91
M  V30 99 1 35 92
M  V30 100 1 36 93
M  V30 101 1 41 94
M  V30 102 1 42 95
M  V30 103 1 44 96
M  V30 104 1 45 97
M  V30 105 1 46 98
M  V30 106 1 47 99
M  V30 107 1 49 100
M  V30 108 1 49 101
M  V30 109 1 50 102 CFG=1
M  V30 110 1 53 103
M  V30 111 1 53 104
M  V30 112 1 53 105
M  V30 113 1 55 106 CFG=3
M  V30 114 1 58 107
M  V30 115 1 58 108
M  V30 116 1 58 109
M  V30 117 1 60 110 CFG=1
M  V30 118 1 63 111
M  V30 119 1 63 112
M  V30 120 1 63 113
M  V30 END BOND
M  V30 END CTAB
M  END
>  <catalyst_id>  (1) 
PHTKELPBNVPHQU_BAYZXUAWSA_S

>  <source_smiles>  (1) 
CC(=O)OC[C@H]1O[C@@H](NC(=S)N[C@@H](c2ccccc2)[C@H](c2ccccc2)N2Cc3ccc4ccccc4c3-c3c(ccc4ccccc34)C2)[C@H](OC(C)=O)[C@@H](OC(C)=O)[C@@H]1OC(C)=O

>  <axial_configuration>  (1) 
S

>  <inchikey>  (1) 
PHTKELPBNVPHQU-BAYZXUAWSA-N

>  <build_source>  (1) 
smiles+axial_bridged

>  <final_biaryl_angle_deg>  (1) 
-121.97

>  <n_valid_conformers>  (1) 
8

>  <rdkit_version>  (1) 
2025.09.6

>  <random_seed>  (1) 
42

>  <generated_at>  (1) 
2026-05-19T12:38:52

$$$$
