catalyst243
     RDKit          3D

  0  0  0  0  0  0  0  0  0  0999 V3000
M  V30 BEGIN CTAB
M  V30 COUNTS 78 80 0 0 0
M  V30 BEGIN ATOM
M  V30 1 C -7.004408 3.176934 1.302395 0
M  V30 2 C -5.535947 3.078982 1.578692 0
M  V30 3 O -5.047904 2.946967 2.691744 0
M  V30 4 O -4.834048 3.123783 0.413342 0
M  V30 5 C -3.407378 3.069742 0.556529 0
M  V30 6 C -2.869712 1.654016 0.838576 0 CFG=2
M  V30 7 O -1.473607 1.781762 1.127905 0
M  V30 8 C -0.884748 0.542061 1.534412 0 CFG=2
M  V30 9 O 0.514579 0.687859 1.855445 0
M  V30 10 N 0.853102 2.054221 2.011928 0
M  V30 11 C 1.875789 2.534171 1.271032 0
M  V30 12 S 1.826349 4.125952 0.762762 0
M  V30 13 N 2.941300 1.780249 0.935203 0
M  V30 14 C 3.260072 0.372197 1.197829 0 CFG=2
M  V30 15 C 3.526864 0.116216 2.688471 0
M  V30 16 C 3.845663 -1.353396 2.947407 0
M  V30 17 C 5.014957 -1.838071 2.097925 0
M  V30 18 C 4.800527 -1.558868 0.609545 0
M  V30 19 C 4.507305 -0.066345 0.356327 0 CFG=1
M  V30 20 N 4.370047 0.337677 -1.055867 0
M  V30 21 C 5.568634 0.170729 -1.871278 0
M  V30 22 C 5.059431 0.503460 -3.264682 0
M  V30 23 C 3.584137 0.117067 -3.248312 0
M  V30 24 C 3.288884 -0.294156 -1.810798 0
M  V30 25 C -0.980153 -0.504964 0.418520 0 CFG=1
M  V30 26 O -0.539976 -1.781116 0.955609 0
M  V30 27 C 0.293436 -2.522927 0.180159 0
M  V30 28 C 0.659997 -3.788248 0.893081 0
M  V30 29 O 0.686443 -2.226880 -0.937917 0
M  V30 30 C -2.424623 -0.658139 -0.070734 0 CFG=2
M  V30 31 O -2.366362 -1.437755 -1.292820 0
M  V30 32 C -3.342195 -2.356851 -1.504275 0
M  V30 33 C -3.109495 -3.062165 -2.804523 0
M  V30 34 O -4.280887 -2.578168 -0.752732 0
M  V30 35 C -3.090323 0.702709 -0.353226 0 CFG=1
M  V30 36 O -4.513236 0.512649 -0.518975 0
M  V30 37 C -4.978728 0.408105 -1.792255 0
M  V30 38 C -6.464984 0.226329 -1.783470 0
M  V30 39 O -4.295509 0.462532 -2.804001 0
M  V30 40 H -7.539743 3.333602 2.243185 0
M  V30 41 H -7.205940 4.031148 0.650702 0
M  V30 42 H -7.355338 2.251011 0.841386 0
M  V30 43 H -2.972526 3.452199 -0.374736 0
M  V30 44 H -3.080621 3.771716 1.335291 0
M  V30 45 H -3.383393 1.252360 1.721001 0
M  V30 46 H -1.373139 0.189558 2.451224 0
M  V30 47 H 0.043657 2.674782 2.029349 0
M  V30 48 H 3.556029 2.217228 0.254428 0
M  V30 49 H 2.403101 -0.227234 0.874185 0
M  V30 50 H 4.363725 0.740259 3.028277 0
M  V30 51 H 2.666287 0.405141 3.300318 0
M  V30 52 H 4.077953 -1.498264 4.008497 0
M  V30 53 H 2.959315 -1.961332 2.729256 0
M  V30 54 H 5.160067 -2.913356 2.252241 0
M  V30 55 H 5.935470 -1.342383 2.430406 0
M  V30 56 H 5.698154 -1.878708 0.070345 0
M  V30 57 H 3.970673 -2.180138 0.252421 0
M  V30 58 H 5.361667 0.507139 0.745979 0
M  V30 59 H 6.375357 0.845818 -1.569403 0
M  V30 60 H 5.945594 -0.857744 -1.858133 0
M  V30 61 H 5.157486 1.577337 -3.464472 0
M  V30 62 H 5.613915 -0.033846 -4.040430 0
M  V30 63 H 2.970401 0.974739 -3.546784 0
M  V30 64 H 3.376575 -0.702760 -3.943865 0
M  V30 65 H 3.315877 -1.386675 -1.736974 0
M  V30 66 H 2.299270 0.055884 -1.502801 0
M  V30 67 H -0.333818 -0.193727 -0.412778 0
M  V30 68 H 1.080783 -3.554442 1.874292 0
M  V30 69 H -0.222955 -4.423796 0.994636 0
M  V30 70 H 1.417950 -4.323529 0.314020 0
M  V30 71 H -2.999532 -1.209334 0.685254 0
M  V30 72 H -2.142071 -3.570239 -2.782273 0
M  V30 73 H -3.148967 -2.344471 -3.627652 0
M  V30 74 H -3.892366 -3.810796 -2.955644 0
M  V30 75 H -2.643252 1.143766 -1.253944 0
M  V30 76 H -6.737109 -0.593321 -1.113362 0
M  V30 77 H -6.948063 1.154884 -1.471328 0
M  V30 78 H -6.803767 -0.030796 -2.791087 0
M  V30 END ATOM
M  V30 BEGIN BOND
M  V30 1 1 1 2
M  V30 2 2 2 3
M  V30 3 1 2 4
M  V30 4 1 4 5
M  V30 5 1 5 6
M  V30 6 1 6 7
M  V30 7 1 7 8
M  V30 8 1 8 9
M  V30 9 1 9 10
M  V30 10 1 10 11
M  V30 11 2 11 12
M  V30 12 1 11 13
M  V30 13 1 13 14
M  V30 14 1 14 15
M  V30 15 1 15 16
M  V30 16 1 16 17
M  V30 17 1 17 18
M  V30 18 1 18 19
M  V30 19 1 19 20
M  V30 20 1 20 21
M  V30 21 1 21 22
M  V30 22 1 22 23
M  V30 23 1 23 24
M  V30 24 1 8 25
M  V30 25 1 25 26
M  V30 26 1 26 27
M  V30 27 1 27 28
M  V30 28 2 27 29
M  V30 29 1 25 30
M  V30 30 1 30 31
M  V30 31 1 31 32
M  V30 32 1 32 33
M  V30 33 2 32 34
M  V30 34 1 30 35
M  V30 35 1 35 36
M  V30 36 1 36 37
M  V30 37 1 37 38
M  V30 38 2 37 39
M  V30 39 1 35 6
M  V30 40 1 19 14
M  V30 41 1 24 20
M  V30 42 1 1 40
M  V30 43 1 1 41
M  V30 44 1 1 42
M  V30 45 1 5 43
M  V30 46 1 5 44
M  V30 47 1 6 45 CFG=1
M  V30 48 1 8 46 CFG=1
M  V30 49 1 10 47
M  V30 50 1 13 48
M  V30 51 1 14 49 CFG=3
M  V30 52 1 15 50
M  V30 53 1 15 51
M  V30 54 1 16 52
M  V30 55 1 16 53
M  V30 56 1 17 54
M  V30 57 1 17 55
M  V30 58 1 18 56
M  V30 59 1 18 57
M  V30 60 1 19 58 CFG=1
M  V30 61 1 21 59
M  V30 62 1 21 60
M  V30 63 1 22 61
M  V30 64 1 22 62
M  V30 65 1 23 63
M  V30 66 1 23 64
M  V30 67 1 24 65
M  V30 68 1 24 66
M  V30 69 1 25 67 CFG=3
M  V30 70 1 28 68
M  V30 71 1 28 69
M  V30 72 1 28 70
M  V30 73 1 30 71 CFG=1
M  V30 74 1 33 72
M  V30 75 1 33 73
M  V30 76 1 33 74
M  V30 77 1 35 75 CFG=3
M  V30 78 1 38 76
M  V30 79 1 38 77
M  V30 80 1 38 78
M  V30 END BOND
M  V30 END CTAB
M  END
>  <catalyst_id>  (1) 
ONEXSFHIBNAVHL_GCNVISTFSA_NONE

>  <source_smiles>  (1) 
CC(=O)OC[C@@H]1O[C@H](ONC(=S)N[C@@H]2CCCC[C@H]2N2CCCC2)[C@@H](OC(C)=O)[C@H](OC(C)=O)[C@H]1OC(C)=O

>  <axial_configuration>  (1) 
none

>  <inchikey>  (1) 
ONEXSFHIBNAVHL-GCNVISTFSA-N

>  <build_source>  (1) 
smiles

>  <rdkit_version>  (1) 
2025.09.6

>  <random_seed>  (1) 
42

>  <generated_at>  (1) 
2026-05-19T12:33:24

$$$$
