catalyst408
     RDKit          3D

  0  0  0  0  0  0  0  0  0  0999 V3000
M  V30 BEGIN CTAB
M  V30 COUNTS 42 43 0 0 0
M  V30 BEGIN ATOM
M  V30 1 N -3.589158 1.346991 1.689803 0
M  V30 2 C -3.630311 0.794652 0.329345 0 CFG=2
M  V30 3 C -4.522213 -0.450097 0.306306 0
M  V30 4 C -4.543306 -1.094900 -1.077924 0
M  V30 5 C -3.136244 -1.419315 -1.570455 0
M  V30 6 C -2.233917 -0.188709 -1.553880 0
M  V30 7 C -2.198195 0.469778 -0.168163 0 CFG=1
M  V30 8 N -1.380013 1.695546 -0.212959 0
M  V30 9 C -0.012845 1.787980 -0.182293 0
M  V30 10 S 0.649138 3.182762 -0.816688 0
M  V30 11 N 0.622871 0.732568 0.419546 0
M  V30 12 C 1.974843 0.330930 0.394791 0
M  V30 13 C 2.414695 -0.492267 1.438967 0
M  V30 14 C 3.740741 -0.952991 1.495804 0
M  V30 15 C 4.192463 -1.838584 2.631937 0
M  V30 16 F 5.520810 -1.720731 2.905779 0
M  V30 17 F 3.976967 -3.156864 2.372085 0
M  V30 18 F 3.545436 -1.576065 3.801127 0
M  V30 19 C 4.622677 -0.606565 0.462300 0
M  V30 20 C 4.191589 0.184132 -0.613620 0
M  V30 21 C 5.141316 0.558930 -1.726998 0
M  V30 22 F 6.156978 -0.336944 -1.880032 0
M  V30 23 F 5.735513 1.764605 -1.518332 0
M  V30 24 F 4.534534 0.639360 -2.943150 0
M  V30 25 C 2.863854 0.646896 -0.633437 0
M  V30 26 H -4.503084 1.725637 1.935690 0
M  V30 27 H -2.934989 2.131949 1.704417 0
M  V30 28 H -4.067761 1.558535 -0.327272 0
M  V30 29 H -4.163215 -1.185611 1.038385 0
M  V30 30 H -5.546839 -0.187287 0.596884 0
M  V30 31 H -5.142537 -2.011897 -1.047087 0
M  V30 32 H -5.032237 -0.417457 -1.788817 0
M  V30 33 H -2.698630 -2.200645 -0.936932 0
M  V30 34 H -3.186848 -1.824398 -2.587415 0
M  V30 35 H -1.220944 -0.475613 -1.861197 0
M  V30 36 H -2.590550 0.533783 -2.299692 0
M  V30 37 H -1.739030 -0.238423 0.530969 0
M  V30 38 H -1.799991 2.481710 -0.698300 0
M  V30 39 H 0.066580 0.315163 1.154865 0
M  V30 40 H 1.728885 -0.770126 2.239019 0
M  V30 41 H 5.653827 -0.963547 0.489991 0
M  V30 42 H 2.539139 1.227129 -1.493368 0
M  V30 END ATOM
M  V30 BEGIN BOND
M  V30 1 1 1 2
M  V30 2 1 2 3
M  V30 3 1 3 4
M  V30 4 1 4 5
M  V30 5 1 5 6
M  V30 6 1 6 7
M  V30 7 1 7 8
M  V30 8 1 8 9
M  V30 9 2 9 10
M  V30 10 1 9 11
M  V30 11 1 11 12
M  V30 12 2 12 13
M  V30 13 1 13 14
M  V30 14 1 14 15
M  V30 15 1 15 16
M  V30 16 1 15 17
M  V30 17 1 15 18
M  V30 18 2 14 19
M  V30 19 1 19 20
M  V30 20 1 20 21
M  V30 21 1 21 22
M  V30 22 1 21 23
M  V30 23 1 21 24
M  V30 24 2 20 25
M  V30 25 1 7 2
M  V30 26 1 25 12
M  V30 27 1 1 26
M  V30 28 1 1 27
M  V30 29 1 2 28 CFG=3
M  V30 30 1 3 29
M  V30 31 1 3 30
M  V30 32 1 4 31
M  V30 33 1 4 32
M  V30 34 1 5 33
M  V30 35 1 5 34
M  V30 36 1 6 35
M  V30 37 1 6 36
M  V30 38 1 7 37 CFG=1
M  V30 39 1 8 38
M  V30 40 1 11 39
M  V30 41 1 13 40
M  V30 42 1 19 41
M  V30 43 1 25 42
M  V30 END BOND
M  V30 END CTAB
M  END
>  <catalyst_id>  (1) 
XZECTQVYSKGNEA_VXGBXAGGSA_NONE

>  <source_smiles>  (1) 
N[C@@H]1CCCC[C@H]1NC(=S)Nc1cc(C(F)(F)F)cc(C(F)(F)F)c1

>  <axial_configuration>  (1) 
none

>  <inchikey>  (1) 
XZECTQVYSKGNEA-VXGBXAGGSA-N

>  <build_source>  (1) 
smiles

>  <rdkit_version>  (1) 
2025.09.6

>  <random_seed>  (1) 
42

>  <generated_at>  (1) 
2026-05-19T12:30:08

$$$$
