catalyst114
     RDKit          3D

  0  0  0  0  0  0  0  0  0  0999 V3000
M  V30 BEGIN CTAB
M  V30 COUNTS 38 40 0 0 0
M  V30 BEGIN ATOM
M  V30 1 C 3.274035 0.350263 2.474473 0
M  V30 2 C 3.265437 -0.511214 1.275889 0
M  V30 3 C 4.228773 -1.257495 0.633966 0
M  V30 4 C 3.590642 -1.862931 -0.475543 0
M  V30 5 C 2.273996 -1.446456 -0.448615 0
M  V30 6 C 1.097141 -1.729288 -1.330701 0 CFG=1
M  V30 7 N -0.121513 -1.976780 -0.557040 0
M  V30 8 C -0.986384 -0.771265 -0.679428 0 CFG=1
M  V30 9 C -1.104229 0.020616 0.632860 0
M  V30 10 C -2.416000 0.763513 0.754569 0
M  V30 11 C -3.541752 0.127019 1.296826 0
M  V30 12 C -4.757031 0.805567 1.401555 0
M  V30 13 C -4.860463 2.123537 0.961468 0
M  V30 14 C -3.749587 2.762864 0.414840 0
M  V30 15 C -2.533024 2.086600 0.311027 0
M  V30 16 C -0.333141 0.064172 -1.768137 0
M  V30 17 O -0.729854 1.129065 -2.214307 0
M  V30 18 N 0.798301 -0.610077 -2.166758 0
M  V30 19 C 1.731897 -0.098584 -3.142326 0
M  V30 20 O 2.074438 -0.626236 0.627911 0
M  V30 21 H 2.569638 -0.027394 3.221919 0
M  V30 22 H 4.269230 0.382009 2.928430 0
M  V30 23 H 2.985414 1.372781 2.212485 0
M  V30 24 H 5.264482 -1.351682 0.930217 0
M  V30 25 H 4.035073 -2.521186 -1.209211 0
M  V30 26 H 1.304916 -2.596746 -1.966795 0
M  V30 27 H 0.151212 -2.106753 0.415684 0
M  V30 28 H -1.964348 -1.105897 -1.043360 0
M  V30 29 H -1.033858 -0.654990 1.496091 0
M  V30 30 H -0.274645 0.730453 0.746046 0
M  V30 31 H -3.479129 -0.902981 1.640577 0
M  V30 32 H -5.624073 0.304590 1.823544 0
M  V30 33 H -5.807172 2.651041 1.038879 0
M  V30 34 H -3.829515 3.787420 0.061355 0
M  V30 35 H -1.679323 2.596950 -0.131457 0
M  V30 36 H 2.567826 0.381894 -2.626620 0
M  V30 37 H 2.097818 -0.924666 -3.757879 0
M  V30 38 H 1.244776 0.642267 -3.782436 0
M  V30 END ATOM
M  V30 BEGIN BOND
M  V30 1 1 1 2
M  V30 2 2 2 3
M  V30 3 1 3 4
M  V30 4 2 4 5
M  V30 5 1 5 6
M  V30 6 1 6 7
M  V30 7 1 7 8
M  V30 8 1 8 9
M  V30 9 1 9 10
M  V30 10 2 10 11
M  V30 11 1 11 12
M  V30 12 2 12 13
M  V30 13 1 13 14
M  V30 14 2 14 15
M  V30 15 1 8 16
M  V30 16 2 16 17
M  V30 17 1 16 18
M  V30 18 1 18 19
M  V30 19 1 5 20
M  V30 20 1 20 2
M  V30 21 1 18 6
M  V30 22 1 15 10
M  V30 23 1 1 21
M  V30 24 1 1 22
M  V30 25 1 1 23
M  V30 26 1 3 24
M  V30 27 1 4 25
M  V30 28 1 6 26 CFG=3
M  V30 29 1 7 27
M  V30 30 1 8 28 CFG=3
M  V30 31 1 9 29
M  V30 32 1 9 30
M  V30 33 1 11 31
M  V30 34 1 12 32
M  V30 35 1 13 33
M  V30 36 1 14 34
M  V30 37 1 15 35
M  V30 38 1 19 36
M  V30 39 1 19 37
M  V30 40 1 19 38
M  V30 END BOND
M  V30 END CTAB
M  END
>  <catalyst_id>  (1) 
IQIMPHPFMHVWBZ_ZFWWWQNUSA_NONE

>  <source_smiles>  (1) 
Cc1ccc([C@H]2N[C@@H](Cc3ccccc3)C(=O)N2C)o1

>  <axial_configuration>  (1) 
none

>  <inchikey>  (1) 
IQIMPHPFMHVWBZ-ZFWWWQNUSA-N

>  <build_source>  (1) 
smiles

>  <rdkit_version>  (1) 
2025.09.6

>  <random_seed>  (1) 
42

>  <generated_at>  (1) 
2026-05-19T12:30:04

$$$$
