catalyst78
     RDKit          3D

  0  0  0  0  0  0  0  0  0  0999 V3000
M  V30 BEGIN CTAB
M  V30 COUNTS 79 84 0 0 0
M  V30 BEGIN ATOM
M  V30 1 C -4.727009 5.560127 0.717180 0
M  V30 2 C -3.909858 4.502347 0.802496 0
M  V30 3 C -2.536273 4.546422 1.429956 0 CFG=1
M  V30 4 C -2.379810 3.501684 2.567151 0
M  V30 5 N -1.212781 2.605113 2.346183 0
M  V30 6 C 0.006940 3.443432 2.276654 0
M  V30 7 C -0.068461 4.477152 1.142801 0
M  V30 8 C -1.405472 4.320013 0.395609 0 CFG=1
M  V30 9 C -1.434600 2.876190 -0.139518 0
M  V30 10 C -1.429295 1.883377 1.046346 0 CFG=1
M  V30 11 C -0.413283 0.701827 0.833410 0 CFG=1
M  V30 12 N -0.195449 -0.009998 2.108817 0
M  V30 13 C 0.934883 -0.712269 2.453882 0
M  V30 14 S 1.299298 -0.810149 4.077952 0
M  V30 15 N 1.602206 -1.268218 1.393477 0
M  V30 16 C 2.933315 -1.696299 1.224827 0
M  V30 17 C 3.988621 -1.350974 2.067826 0
M  V30 18 C 5.303253 -1.769580 1.792238 0
M  V30 19 C 6.426833 -1.400389 2.732303 0
M  V30 20 F 6.285431 -0.158625 3.272423 0
M  V30 21 F 7.647163 -1.401190 2.125068 0
M  V30 22 F 6.531158 -2.261216 3.780289 0
M  V30 23 C 5.549821 -2.544640 0.648164 0
M  V30 24 C 4.506809 -2.887749 -0.222603 0
M  V30 25 C 4.769079 -3.671623 -1.485238 0
M  V30 26 F 5.925321 -4.389692 -1.442481 0
M  V30 27 F 3.783827 -4.567558 -1.768486 0
M  V30 28 F 4.868606 -2.866793 -2.579643 0
M  V30 29 C 3.206349 -2.450208 0.075048 0
M  V30 30 C -0.885502 -0.260771 -0.254374 0
M  V30 31 C -2.036534 -1.030153 -0.003820 0
M  V30 32 C -2.494569 -1.935455 -0.950791 0
M  V30 33 C -3.694169 -2.774447 -0.750564 0
M  V30 34 C -4.071323 -3.252183 0.518688 0
M  V30 35 C -5.214251 -4.040947 0.689636 0
M  V30 36 C -6.003957 -4.373420 -0.406914 0
M  V30 37 C -5.649195 -3.923427 -1.674573 0
M  V30 38 C -4.506128 -3.136022 -1.842175 0
M  V30 39 N -1.852463 -2.096345 -2.130223 0
M  V30 40 C -0.741647 -1.392012 -2.383438 0
M  V30 41 C -0.095081 -1.633148 -3.586399 0
M  V30 42 C 1.090695 -0.983413 -3.939724 0
M  V30 43 C 1.646541 -0.057212 -3.072141 0
M  V30 44 O 2.801472 0.644191 -3.271691 0
M  V30 45 C 3.581504 0.285759 -4.407057 0
M  V30 46 C 0.996452 0.215087 -1.865175 0
M  V30 47 C -0.199342 -0.447862 -1.485555 0
M  V30 48 H -4.443701 6.536862 1.097334 0
M  V30 49 H -5.707049 5.468953 0.257950 0
M  V30 50 H -4.254046 3.549456 0.404689 0
M  V30 51 H -2.387520 5.541844 1.872741 0
M  V30 52 H -3.285592 2.894054 2.691696 0
M  V30 53 H -2.252873 4.021736 3.525967 0
M  V30 54 H 0.152116 3.956077 3.236078 0
M  V30 55 H 0.896644 2.815284 2.153825 0
M  V30 56 H 0.019611 5.490762 1.551627 0
M  V30 57 H 0.770136 4.334135 0.450733 0
M  V30 58 H -1.467670 5.039003 -0.428930 0
M  V30 59 H -2.324665 2.712043 -0.757577 0
M  V30 60 H -0.568074 2.723118 -0.793513 0
M  V30 61 H -2.431230 1.437608 1.115370 0
M  V30 62 H 0.559496 1.132053 0.584692 0
M  V30 63 H -0.579959 0.500499 2.903261 0
M  V30 64 H 0.979757 -1.532285 0.641661 0
M  V30 65 H 3.829288 -0.721478 2.938477 0
M  V30 66 H 6.567219 -2.873299 0.429000 0
M  V30 67 H 2.399633 -2.708598 -0.611634 0
M  V30 68 H -2.568756 -0.913430 0.936783 0
M  V30 69 H -3.466320 -3.033699 1.396069 0
M  V30 70 H -5.481201 -4.400939 1.680092 0
M  V30 71 H -6.890048 -4.988593 -0.275002 0
M  V30 72 H -6.256697 -4.185456 -2.536797 0
M  V30 73 H -4.245495 -2.797560 -2.844123 0
M  V30 74 H -0.522602 -2.363353 -4.271394 0
M  V30 75 H 1.543798 -1.227953 -4.894615 0
M  V30 76 H 4.497466 0.883928 -4.385084 0
M  V30 77 H 3.871386 -0.769807 -4.371934 0
M  V30 78 H 3.051971 0.520400 -5.336131 0
M  V30 79 H 1.465849 0.949903 -1.217156 0
M  V30 END ATOM
M  V30 BEGIN BOND
M  V30 1 2 1 2
M  V30 2 1 2 3
M  V30 3 1 3 4
M  V30 4 1 4 5
M  V30 5 1 5 6
M  V30 6 1 6 7
M  V30 7 1 7 8
M  V30 8 1 8 9
M  V30 9 1 9 10
M  V30 10 1 10 11
M  V30 11 1 11 12
M  V30 12 1 12 13
M  V30 13 2 13 14
M  V30 14 1 13 15
M  V30 15 1 15 16
M  V30 16 2 16 17
M  V30 17 1 17 18
M  V30 18 1 18 19
M  V30 19 1 19 20
M  V30 20 1 19 21
M  V30 21 1 19 22
M  V30 22 2 18 23
M  V30 23 1 23 24
M  V30 24 1 24 25
M  V30 25 1 25 26
M  V30 26 1 25 27
M  V30 27 1 25 28
M  V30 28 2 24 29
M  V30 29 1 11 30
M  V30 30 2 30 31
M  V30 31 1 31 32
M  V30 32 1 32 33
M  V30 33 2 33 34
M  V30 34 1 34 35
M  V30 35 2 35 36
M  V30 36 1 36 37
M  V30 37 2 37 38
M  V30 38 2 32 39
M  V30 39 1 39 40
M  V30 40 2 40 41
M  V30 41 1 41 42
M  V30 42 2 42 43
M  V30 43 1 43 44
M  V30 44 1 44 45
M  V30 45 1 43 46
M  V30 46 2 46 47
M  V30 47 1 8 3
M  V30 48 1 29 16
M  V30 49 1 47 30
M  V30 50 1 10 5
M  V30 51 1 38 33
M  V30 52 1 47 40
M  V30 53 1 1 48
M  V30 54 1 1 49
M  V30 55 1 2 50
M  V30 56 1 3 51 CFG=1
M  V30 57 1 4 52
M  V30 58 1 4 53
M  V30 59 1 6 54
M  V30 60 1 6 55
M  V30 61 1 7 56
M  V30 62 1 7 57
M  V30 63 1 8 58 CFG=3
M  V30 64 1 9 59
M  V30 65 1 9 60
M  V30 66 1 10 61 CFG=1
M  V30 67 1 11 62 CFG=3
M  V30 68 1 12 63
M  V30 69 1 15 64
M  V30 70 1 17 65
M  V30 71 1 23 66
M  V30 72 1 29 67
M  V30 73 1 31 68
M  V30 74 1 34 69
M  V30 75 1 35 70
M  V30 76 1 36 71
M  V30 77 1 37 72
M  V30 78 1 38 73
M  V30 79 1 41 74
M  V30 80 1 42 75
M  V30 81 1 45 76
M  V30 82 1 45 77
M  V30 83 1 45 78
M  V30 84 1 46 79
M  V30 END BOND
M  V30 END CTAB
M  END
>  <catalyst_id>  (1) 
GFXQELZAATUKSI_PMMWFLLASA_NONE

>  <source_smiles>  (1) 
C=C[C@H]1CN2CC[C@H]1C[C@H]2[C@@H](NC(=S)Nc1cc(C(F)(F)F)cc(C(F)(F)F)c1)c1cc(-c2ccccc2)nc2ccc(OC)cc12

>  <axial_configuration>  (1) 
none

>  <inchikey>  (1) 
GFXQELZAATUKSI-PMMWFLLASA-N

>  <build_source>  (1) 
smiles

>  <final_biaryl_angle_deg>  (1) 
-32.81

>  <rdkit_version>  (1) 
2025.09.6

>  <random_seed>  (1) 
42

>  <generated_at>  (1) 
2026-05-19T12:33:00

$$$$
