catalyst143
     RDKit          3D

  0  0  0  0  0  0  0  0  0  0999 V3000
M  V30 BEGIN CTAB
M  V30 COUNTS 71 76 0 0 0
M  V30 BEGIN ATOM
M  V30 1 C -4.203284 -3.169153 -1.704761 0
M  V30 2 C -3.902902 -2.659370 -0.300947 0
M  V30 3 C -2.540083 -3.142411 0.224820 0 CFG=1
M  V30 4 C -1.346005 -2.505976 -0.529372 0
M  V30 5 N -0.418941 -1.803353 0.393261 0
M  V30 6 C 0.107870 -2.787073 1.366685 0
M  V30 7 C -1.014442 -3.472831 2.158273 0
M  V30 8 C -2.368876 -2.874304 1.741393 0 CFG=1
M  V30 9 C -2.283977 -1.364261 2.019771 0
M  V30 10 C -1.208512 -0.734567 1.104915 0 CFG=1
M  V30 11 C -0.290390 0.293076 1.871493 0 CFG=1
M  V30 12 N 0.938343 0.529327 1.088609 0
M  V30 13 C 2.055621 1.036986 1.574500 0
M  V30 14 C 3.344203 1.254861 1.143137 0
M  V30 15 N 4.122546 1.100074 0.090542 0
M  V30 16 C 3.784494 0.794054 -1.245039 0
M  V30 17 C 2.514922 1.025571 -1.782710 0
M  V30 18 C 2.185447 0.641653 -3.093972 0
M  V30 19 C 0.800325 0.918440 -3.625171 0
M  V30 20 F 0.599014 0.448505 -4.887519 0
M  V30 21 F 0.515283 2.248992 -3.672852 0
M  V30 22 F -0.175373 0.355962 -2.859158 0
M  V30 23 C 3.159211 0.011265 -3.880672 0
M  V30 24 C 4.439401 -0.243334 -3.367306 0
M  V30 25 C 5.493018 -0.909043 -4.219590 0
M  V30 26 F 6.390759 -1.630027 -3.492421 0
M  V30 27 F 4.970493 -1.775453 -5.130904 0
M  V30 28 F 6.222886 -0.008453 -4.931889 0
M  V30 29 C 4.736956 0.156398 -2.053000 0
M  V30 30 C 3.747765 1.799330 2.461432 0
M  V30 31 O 4.741566 2.231741 2.990320 0
M  V30 32 C 2.366992 1.557277 2.932938 0
M  V30 33 O 1.841255 1.680121 4.012428 0
M  V30 34 C -1.013703 1.599284 2.188327 0
M  V30 35 C -1.298165 1.857643 3.538189 0
M  V30 36 C -1.962830 3.017426 3.877306 0
M  V30 37 N -2.375586 3.929440 2.979833 0
M  V30 38 C -2.107113 3.708969 1.684618 0
M  V30 39 C -2.528921 4.669861 0.775531 0
M  V30 40 C -2.299836 4.545727 -0.594559 0
M  V30 41 C -1.630760 3.432473 -1.074417 0
M  V30 42 C -1.198847 2.452662 -0.180271 0
M  V30 43 C -1.424262 2.559165 1.215859 0
M  V30 44 H -4.190007 -4.263327 -1.734705 0
M  V30 45 H -3.478002 -2.796771 -2.433954 0
M  V30 46 H -5.196825 -2.835221 -2.020628 0
M  V30 47 H -4.696008 -3.012529 0.369146 0
M  V30 48 H -3.952146 -1.564623 -0.304946 0
M  V30 49 H -2.493839 -4.230736 0.076971 0
M  V30 50 H -0.794670 -3.285740 -1.070656 0
M  V30 51 H -1.679714 -1.801647 -1.300902 0
M  V30 52 H 0.702195 -3.542259 0.836889 0
M  V30 53 H 0.810657 -2.303087 2.054733 0
M  V30 54 H -0.852863 -3.332470 3.233741 0
M  V30 55 H -1.003850 -4.552721 1.968292 0
M  V30 56 H -3.179490 -3.331230 2.319148 0
M  V30 57 H -3.253146 -0.885780 1.838117 0
M  V30 58 H -2.051051 -1.207448 3.079903 0
M  V30 59 H -1.737773 -0.178990 0.321363 0
M  V30 60 H 0.019998 -0.188869 2.808869 0
M  V30 61 H 0.988004 -0.159900 0.327151 0
M  V30 62 H 5.124499 1.274284 0.190823 0
M  V30 63 H 1.765543 1.547844 -1.191834 0
M  V30 64 H 2.919706 -0.288449 -4.902397 0
M  V30 65 H 5.728233 -0.053067 -1.650833 0
M  V30 66 H -0.988418 1.176961 4.325844 0
M  V30 67 H -2.186284 3.252240 4.914037 0
M  V30 68 H -3.052095 5.547616 1.148973 0
M  V30 69 H -2.642409 5.319292 -1.276198 0
M  V30 70 H -1.440988 3.322517 -2.139242 0
M  V30 71 H -0.674821 1.597438 -0.595354 0
M  V30 END ATOM
M  V30 BEGIN BOND
M  V30 1 1 1 2
M  V30 2 1 2 3
M  V30 3 1 3 4
M  V30 4 1 4 5
M  V30 5 1 5 6
M  V30 6 1 6 7
M  V30 7 1 7 8
M  V30 8 1 8 9
M  V30 9 1 9 10
M  V30 10 1 10 11
M  V30 11 1 11 12
M  V30 12 1 12 13
M  V30 13 2 13 14
M  V30 14 1 14 15
M  V30 15 1 15 16
M  V30 16 2 16 17
M  V30 17 1 17 18
M  V30 18 1 18 19
M  V30 19 1 19 20
M  V30 20 1 19 21
M  V30 21 1 19 22
M  V30 22 2 18 23
M  V30 23 1 23 24
M  V30 24 1 24 25
M  V30 25 1 25 26
M  V30 26 1 25 27
M  V30 27 1 25 28
M  V30 28 2 24 29
M  V30 29 1 14 30
M  V30 30 2 30 31
M  V30 31 1 30 32
M  V30 32 2 32 33
M  V30 33 1 11 34
M  V30 34 2 34 35
M  V30 35 1 35 36
M  V30 36 2 36 37
M  V30 37 1 37 38
M  V30 38 2 38 39
M  V30 39 1 39 40
M  V30 40 2 40 41
M  V30 41 1 41 42
M  V30 42 2 42 43
M  V30 43 1 8 3
M  V30 44 1 32 13
M  V30 45 1 43 34
M  V30 46 1 10 5
M  V30 47 1 29 16
M  V30 48 1 43 38
M  V30 49 1 1 44
M  V30 50 1 1 45
M  V30 51 1 1 46
M  V30 52 1 2 47
M  V30 53 1 2 48
M  V30 54 1 3 49 CFG=1
M  V30 55 1 4 50
M  V30 56 1 4 51
M  V30 57 1 6 52
M  V30 58 1 6 53
M  V30 59 1 7 54
M  V30 60 1 7 55
M  V30 61 1 8 56 CFG=1
M  V30 62 1 9 57
M  V30 63 1 9 58
M  V30 64 1 10 59 CFG=3
M  V30 65 1 11 60 CFG=1
M  V30 66 1 12 61
M  V30 67 1 15 62
M  V30 68 1 17 63
M  V30 69 1 23 64
M  V30 70 1 29 65
M  V30 71 1 35 66
M  V30 72 1 36 67
M  V30 73 1 39 68
M  V30 74 1 40 69
M  V30 75 1 41 70
M  V30 76 1 42 71
M  V30 END BOND
M  V30 END CTAB
M  END
>  <catalyst_id>  (1) 
JVIMSFOHLBSJAO_SEMUBUJISA_NONE

>  <source_smiles>  (1) 
CC[C@H]1CN2CC[C@H]1C[C@H]2[C@@H](Nc1c(Nc2cc(C(F)(F)F)cc(C(F)(F)F)c2)c(=O)c1=O)c1ccnc2ccccc12

>  <axial_configuration>  (1) 
none

>  <inchikey>  (1) 
JVIMSFOHLBSJAO-SEMUBUJISA-N

>  <build_source>  (1) 
smiles

>  <rdkit_version>  (1) 
2025.09.6

>  <random_seed>  (1) 
42

>  <generated_at>  (1) 
2026-05-19T12:36:53

$$$$
