catalyst306
     RDKit          3D

  0  0  0  0  0  0  0  0  0  0999 V3000
M  V30 BEGIN CTAB
M  V30 COUNTS 63 68 0 0 0
M  V30 BEGIN ATOM
M  V30 1 C -5.970228 2.984704 0.954891 0
M  V30 2 C -4.785141 2.415716 0.698367 0
M  V30 3 C -3.454400 3.074108 0.979867 0 CFG=1
M  V30 4 C -2.552183 2.207279 1.903429 0
M  V30 5 N -1.245955 1.880951 1.259763 0
M  V30 6 C -0.555037 3.167774 1.000050 0
M  V30 7 C -1.374338 4.109842 0.107586 0
M  V30 8 C -2.668211 3.398064 -0.316605 0 CFG=1
M  V30 9 C -2.223751 2.110241 -1.033847 0
M  V30 10 C -1.564853 1.145160 -0.014457 0 CFG=1
M  V30 11 C -0.432549 0.269017 -0.693168 0 CFG=1
M  V30 12 N 0.792651 1.075536 -0.899446 0
M  V30 13 S 1.848626 0.648620 -2.141543 0
M  V30 14 O 1.039428 0.171521 -3.246359 0
M  V30 15 O 2.775052 1.743372 -2.330370 0
M  V30 16 C 2.775241 -0.716318 -1.508914 0
M  V30 17 C 2.926250 -1.852971 -2.318959 0
M  V30 18 C 3.628584 -2.948404 -1.838200 0
M  V30 19 C 4.177932 -2.898447 -0.561165 0
M  V30 20 C 4.028669 -1.753035 0.241554 0
M  V30 21 C 4.581695 -1.709865 1.528350 0
M  V30 22 C 4.428814 -0.577949 2.316695 0
M  V30 23 C 3.714112 0.477647 1.793600 0
M  V30 24 N 3.150890 0.467174 0.564800 0
M  V30 25 C 3.314358 -0.626583 -0.224157 0
M  V30 26 C -0.171220 -1.035450 0.058422 0
M  V30 27 C 0.215681 -0.971563 1.405114 0
M  V30 28 C 0.481795 -2.138435 2.089202 0
M  V30 29 N 0.396243 -3.361296 1.538323 0
M  V30 30 C 0.031962 -3.448836 0.251386 0
M  V30 31 C -0.039787 -4.721268 -0.297953 0
M  V30 32 C -0.399648 -4.935382 -1.627499 0
M  V30 33 C -0.697040 -3.850267 -2.434204 0
M  V30 34 C -0.634634 -2.559687 -1.905999 0
M  V30 35 C -0.270290 -2.321361 -0.554369 0
M  V30 36 H -6.048456 3.978433 1.385101 0
M  V30 37 H -6.896325 2.462337 0.733670 0
M  V30 38 H -4.773168 1.416550 0.267346 0
M  V30 39 H -3.640889 4.023878 1.501656 0
M  V30 40 H -2.363361 2.746235 2.841591 0
M  V30 41 H -3.051728 1.278280 2.208118 0
M  V30 42 H -0.355439 3.663065 1.959665 0
M  V30 43 H 0.437215 3.014605 0.570624 0
M  V30 44 H -1.608750 5.034848 0.647735 0
M  V30 45 H -0.788617 4.391552 -0.775684 0
M  V30 46 H -3.250735 4.036127 -0.990427 0
M  V30 47 H -3.083525 1.618007 -1.503467 0
M  V30 48 H -1.529722 2.367698 -1.843696 0
M  V30 49 H -2.339914 0.406209 0.243949 0
M  V30 50 H -0.848924 0.044205 -1.677052 0
M  V30 51 H 1.338120 1.193146 -0.036210 0
M  V30 52 H 2.491327 -1.888501 -3.315582 0
M  V30 53 H 3.742989 -3.839337 -2.450469 0
M  V30 54 H 4.721226 -3.765028 -0.189134 0
M  V30 55 H 5.135800 -2.558980 1.921888 0
M  V30 56 H 4.857245 -0.524112 3.310963 0
M  V30 57 H 3.565692 1.390624 2.363981 0
M  V30 58 H 0.327091 -0.023822 1.921972 0
M  V30 59 H 0.786542 -2.117741 3.131233 0
M  V30 60 H 0.194042 -5.576162 0.332929 0
M  V30 61 H -0.445013 -5.946005 -2.023645 0
M  V30 62 H -0.975550 -3.999690 -3.474498 0
M  V30 63 H -0.865890 -1.746032 -2.587910 0
M  V30 END ATOM
M  V30 BEGIN BOND
M  V30 1 2 1 2
M  V30 2 1 2 3
M  V30 3 1 3 4
M  V30 4 1 4 5
M  V30 5 1 5 6
M  V30 6 1 6 7
M  V30 7 1 7 8
M  V30 8 1 8 9
M  V30 9 1 9 10
M  V30 10 1 10 11
M  V30 11 1 11 12
M  V30 12 1 12 13
M  V30 13 2 13 14
M  V30 14 2 13 15
M  V30 15 1 13 16
M  V30 16 2 16 17
M  V30 17 1 17 18
M  V30 18 2 18 19
M  V30 19 1 19 20
M  V30 20 2 20 21
M  V30 21 1 21 22
M  V30 22 2 22 23
M  V30 23 1 23 24
M  V30 24 2 24 25
M  V30 25 1 11 26
M  V30 26 2 26 27
M  V30 27 1 27 28
M  V30 28 2 28 29
M  V30 29 1 29 30
M  V30 30 2 30 31
M  V30 31 1 31 32
M  V30 32 2 32 33
M  V30 33 1 33 34
M  V30 34 2 34 35
M  V30 35 1 8 3
M  V30 36 1 25 16
M  V30 37 1 35 26
M  V30 38 1 10 5
M  V30 39 1 25 20
M  V30 40 1 35 30
M  V30 41 1 1 36
M  V30 42 1 1 37
M  V30 43 1 2 38
M  V30 44 1 3 39 CFG=1
M  V30 45 1 4 40
M  V30 46 1 4 41
M  V30 47 1 6 42
M  V30 48 1 6 43
M  V30 49 1 7 44
M  V30 50 1 7 45
M  V30 51 1 8 46 CFG=3
M  V30 52 1 9 47
M  V30 53 1 9 48
M  V30 54 1 10 49 CFG=1
M  V30 55 1 11 50 CFG=3
M  V30 56 1 12 51
M  V30 57 1 17 52
M  V30 58 1 18 53
M  V30 59 1 19 54
M  V30 60 1 21 55
M  V30 61 1 22 56
M  V30 62 1 23 57
M  V30 63 1 27 58
M  V30 64 1 28 59
M  V30 65 1 31 60
M  V30 66 1 32 61
M  V30 67 1 33 62
M  V30 68 1 34 63
M  V30 END BOND
M  V30 END CTAB
M  END
>  <catalyst_id>  (1) 
RNPQJTUCXSVJMB_YTVPYFAMSA_NONE

>  <source_smiles>  (1) 
C=C[C@H]1CN2CC[C@H]1C[C@H]2[C@@H](NS(=O)(=O)c1cccc2cccnc12)c1ccnc2ccccc12

>  <axial_configuration>  (1) 
none

>  <inchikey>  (1) 
RNPQJTUCXSVJMB-YTVPYFAMSA-N

>  <build_source>  (1) 
smiles

>  <rdkit_version>  (1) 
2025.09.6

>  <random_seed>  (1) 
42

>  <generated_at>  (1) 
2026-05-19T12:33:37

$$$$
