catalyst332
     RDKit          3D

  0  0  0  0  0  0  0  0  0  0999 V3000
M  V30 BEGIN CTAB
M  V30 COUNTS 78 86 0 0 0
M  V30 BEGIN ATOM
M  V30 1 O -0.199958 1.053565 -1.805602 0
M  V30 2 P -0.284460 0.532341 -0.405121 0
M  V30 3 O -1.072259 1.552383 0.558149 0
M  V30 4 O 1.111659 0.288498 0.360791 0
M  V30 5 C 1.795053 -0.869721 0.059281 0
M  V30 6 C 2.998107 -0.732031 -0.652035 0
M  V30 7 C 3.523079 0.576703 -1.057751 0
M  V30 8 C 3.157793 1.149775 -2.281587 0
M  V30 9 C 3.661985 2.397160 -2.666467 0
M  V30 10 C 4.549459 3.106757 -1.842915 0
M  V30 11 C 5.076110 4.420887 -2.247689 0
M  V30 12 C 4.212167 5.458389 -2.636732 0
M  V30 13 C 4.710297 6.706556 -3.020495 0
M  V30 14 C 6.083270 6.938557 -3.022512 0
M  V30 15 C 6.957710 5.924264 -2.641029 0
M  V30 16 C 6.457600 4.676962 -2.256718 0
M  V30 17 C 4.914196 2.525672 -0.618579 0
M  V30 18 C 4.408541 1.279617 -0.230746 0
M  V30 19 C 3.710968 -1.889907 -0.964254 0
M  V30 20 C 3.234658 -3.155923 -0.611274 0
M  V30 21 C 3.963097 -4.293749 -0.997961 0
M  V30 22 C 3.501362 -5.575470 -0.712728 0
M  V30 23 C 2.296051 -5.734026 -0.048364 0
M  V30 24 C 1.567268 -4.609242 0.347772 0
M  V30 25 C 2.019749 -3.285381 0.114441 0
M  V30 26 C 1.290894 -2.110245 0.524874 0
M  V30 27 C 0.118165 -2.139502 1.376675 0
M  V30 28 C -1.078750 -1.501951 0.963135 0
M  V30 29 C -2.285820 -1.546329 1.684405 0
M  V30 30 C -3.508103 -0.871962 1.215591 0
M  V30 31 C -4.145500 -1.262534 0.030428 0
M  V30 32 C -5.299169 -0.607235 -0.416005 0
M  V30 33 C -5.854747 0.458520 0.308069 0
M  V30 34 C -7.069250 1.146140 -0.161731 0
M  V30 35 C -7.102771 2.543737 -0.303550 0
M  V30 36 C -8.255265 3.196371 -0.750146 0
M  V30 37 C -9.396150 2.461648 -1.061831 0
M  V30 38 C -9.385417 1.075839 -0.927875 0
M  V30 39 C -8.231762 0.424774 -0.482134 0
M  V30 40 C -5.215374 0.846573 1.494990 0
M  V30 41 C -4.061806 0.191913 1.942213 0
M  V30 42 C -2.294841 -2.245220 2.892460 0
M  V30 43 C -1.139745 -2.851421 3.395531 0
M  V30 44 C -1.196670 -3.500930 4.640646 0
M  V30 45 C -0.059980 -4.066201 5.210892 0
M  V30 46 C 1.152551 -3.973535 4.547925 0
M  V30 47 C 1.218591 -3.337023 3.305310 0
M  V30 48 C 0.077785 -2.787198 2.665522 0
M  V30 49 O -1.109131 -0.841803 -0.246097 0
M  V30 50 H -1.848154 1.916490 0.094647 0
M  V30 51 H 2.463876 0.634242 -2.943435 0
M  V30 52 H 3.355486 2.809806 -3.625685 0
M  V30 53 H 3.135103 5.301558 -2.631313 0
M  V30 54 H 4.023922 7.496099 -3.314767 0
M  V30 55 H 6.471221 7.908724 -3.321165 0
M  V30 56 H 8.030098 6.100388 -2.644235 0
M  V30 57 H 7.158978 3.894796 -1.973436 0
M  V30 58 H 5.586932 3.051064 0.056244 0
M  V30 59 H 4.704164 0.863577 0.730134 0
M  V30 60 H 4.645404 -1.795802 -1.517127 0
M  V30 61 H 4.899925 -4.189703 -1.542682 0
M  V30 62 H 4.073852 -6.444683 -1.024795 0
M  V30 63 H 1.912553 -6.729414 0.160550 0
M  V30 64 H 0.613461 -4.787623 0.841375 0
M  V30 65 H -3.743200 -2.083398 -0.560838 0
M  V30 66 H -5.757295 -0.932415 -1.348402 0
M  V30 67 H -6.219999 3.137842 -0.076722 0
M  V30 68 H -8.259042 4.278018 -0.856735 0
M  V30 69 H -10.292632 2.968472 -1.409099 0
M  V30 70 H -10.274933 0.499081 -1.167483 0
M  V30 71 H -8.249972 -0.657935 -0.374059 0
M  V30 72 H -5.620992 1.660453 2.093286 0
M  V30 73 H -3.590093 0.527281 2.864471 0
M  V30 74 H -3.223128 -2.298812 3.460846 0
M  V30 75 H -2.134807 -3.559754 5.189772 0
M  V30 76 H -0.120106 -4.558755 6.177504 0
M  V30 77 H 2.053544 -4.387962 4.992808 0
M  V30 78 H 2.200716 -3.264802 2.841353 0
M  V30 END ATOM
M  V30 BEGIN BOND
M  V30 1 2 1 2
M  V30 2 1 2 3
M  V30 3 1 2 4
M  V30 4 1 4 5
M  V30 5 2 5 6
M  V30 6 1 6 7
M  V30 7 2 7 8
M  V30 8 1 8 9
M  V30 9 2 9 10
M  V30 10 1 10 11
M  V30 11 2 11 12
M  V30 12 1 12 13
M  V30 13 2 13 14
M  V30 14 1 14 15
M  V30 15 2 15 16
M  V30 16 1 10 17
M  V30 17 2 17 18
M  V30 18 1 6 19
M  V30 19 2 19 20
M  V30 20 1 20 21
M  V30 21 2 21 22
M  V30 22 1 22 23
M  V30 23 2 23 24
M  V30 24 1 24 25
M  V30 25 2 25 26
M  V30 26 1 26 27
M  V30 27 2 27 28
M  V30 28 1 28 29
M  V30 29 1 29 30
M  V30 30 2 30 31
M  V30 31 1 31 32
M  V30 32 2 32 33
M  V30 33 1 33 34
M  V30 34 2 34 35
M  V30 35 1 35 36
M  V30 36 2 36 37
M  V30 37 1 37 38
M  V30 38 2 38 39
M  V30 39 1 33 40
M  V30 40 2 40 41
M  V30 41 2 29 42
M  V30 42 1 42 43
M  V30 43 2 43 44
M  V30 44 1 44 45
M  V30 45 2 45 46
M  V30 46 1 46 47
M  V30 47 2 47 48
M  V30 48 1 28 49
M  V30 49 1 49 2
M  V30 50 1 26 5
M  V30 51 1 48 27
M  V30 52 1 18 7
M  V30 53 1 25 20
M  V30 54 1 41 30
M  V30 55 1 48 43
M  V30 56 1 16 11
M  V30 57 1 39 34
M  V30 58 1 3 50
M  V30 59 1 8 51
M  V30 60 1 9 52
M  V30 61 1 12 53
M  V30 62 1 13 54
M  V30 63 1 14 55
M  V30 64 1 15 56
M  V30 65 1 16 57
M  V30 66 1 17 58
M  V30 67 1 18 59
M  V30 68 1 19 60
M  V30 69 1 21 61
M  V30 70 1 22 62
M  V30 71 1 23 63
M  V30 72 1 24 64
M  V30 73 1 31 65
M  V30 74 1 32 66
M  V30 75 1 35 67
M  V30 76 1 36 68
M  V30 77 1 37 69
M  V30 78 1 38 70
M  V30 79 1 39 71
M  V30 80 1 40 72
M  V30 81 1 41 73
M  V30 82 1 42 74
M  V30 83 1 44 75
M  V30 84 1 45 76
M  V30 85 1 46 77
M  V30 86 1 47 78
M  V30 END BOND
M  V30 END CTAB
M  END
>  <catalyst_id>  (1) 
SKOZHEMVYVCNLO_UHFFFAOYSA_S

>  <source_smiles>  (1) 
O=P1(O)Oc2c(-c3ccc(-c4ccccc4)cc3)cc3ccccc3c2-c2c(c(-c3ccc(-c4ccccc4)cc3)cc3ccccc23)O1

>  <axial_configuration>  (1) 
S

>  <inchikey>  (1) 
SKOZHEMVYVCNLO-UHFFFAOYSA-N

>  <build_source>  (1) 
smiles+axial_free

>  <final_biaryl_angle_deg>  (1) 
-88.83

>  <rdkit_version>  (1) 
2025.09.6

>  <random_seed>  (1) 
42

>  <generated_at>  (1) 
2026-05-19T12:29:59

$$$$
