catalyst320
     RDKit          3D

  0  0  0  0  0  0  0  0  0  0999 V3000
M  V30 BEGIN CTAB
M  V30 COUNTS 94 96 0 0 0
M  V30 BEGIN ATOM
M  V30 1 C -2.959420 1.583188 -2.722151 0
M  V30 2 C -3.835105 0.394974 -2.262939 0
M  V30 3 C -5.307424 0.782756 -2.514715 0
M  V30 4 C -3.467885 -0.809709 -3.157625 0
M  V30 5 C -3.652853 0.027893 -0.777574 0
M  V30 6 C -2.856583 0.778779 0.091781 0
M  V30 7 C -2.721565 0.393900 1.426124 0
M  V30 8 C -1.909363 1.252314 2.297470 0
M  V30 9 N -0.777010 0.971319 2.841650 0
M  V30 10 C -0.050408 -0.269898 2.524368 0 CFG=2
M  V30 11 C 0.520590 -0.832629 3.834636 0
M  V30 12 C 1.653849 0.015827 4.405580 0
M  V30 13 C 2.753566 0.253901 3.378288 0
M  V30 14 C 2.200854 0.874730 2.098041 0
M  V30 15 C 1.059715 0.046562 1.487224 0 CFG=1
M  V30 16 N 1.582047 -1.187542 0.878970 0
M  V30 17 C 2.165205 -1.385155 -0.332507 0
M  V30 18 S 2.674412 -2.928710 -0.696628 0
M  V30 19 N 2.271518 -0.293292 -1.135717 0
M  V30 20 C 2.824586 -0.201625 -2.510512 0 CFG=2
M  V30 21 C 4.153809 0.600834 -2.417216 0
M  V30 22 O 4.514017 1.441111 -3.235271 0
M  V30 23 N 4.960749 0.199608 -1.370498 0
M  V30 24 C 6.174859 0.894676 -1.018122 0
M  V30 25 C 5.920743 1.855900 0.114391 0
M  V30 26 C 6.222719 1.502045 1.436791 0
M  V30 27 C 5.959648 2.388272 2.482787 0
M  V30 28 C 5.383599 3.629825 2.219205 0
M  V30 29 C 5.071816 3.988950 0.909429 0
M  V30 30 C 5.337713 3.106552 -0.138149 0
M  V30 31 C 1.758075 0.350974 -3.509992 0
M  V30 32 C 0.494995 -0.540316 -3.455855 0
M  V30 33 C 2.282674 0.294589 -4.959860 0
M  V30 34 C 1.336281 1.794965 -3.179192 0
M  V30 35 C -3.389604 -0.726417 1.940591 0
M  V30 36 O -3.258106 -1.063818 3.262516 0
M  V30 37 C -4.208637 -1.512024 1.111663 0
M  V30 38 C -4.957519 -2.762340 1.630786 0
M  V30 39 C -3.952883 -3.807631 2.165971 0
M  V30 40 C -5.952437 -2.370650 2.745936 0
M  V30 41 C -5.792805 -3.487416 0.543579 0
M  V30 42 C -4.316781 -1.102081 -0.239594 0
M  V30 43 H -3.101152 1.789911 -3.789732 0
M  V30 44 H -1.893492 1.379964 -2.569892 0
M  V30 45 H -3.211204 2.503869 -2.183073 0
M  V30 46 H -5.994183 -0.044386 -2.303217 0
M  V30 47 H -5.606993 1.627240 -1.882726 0
M  V30 48 H -5.466018 1.074901 -3.559357 0
M  V30 49 H -2.451619 -1.161508 -2.948364 0
M  V30 50 H -4.144636 -1.658581 -3.012624 0
M  V30 51 H -3.517936 -0.543755 -4.220035 0
M  V30 52 H -2.326187 1.663697 -0.246855 0
M  V30 53 H -2.355286 2.238359 2.517131 0
M  V30 54 H -0.709969 -1.036549 2.106133 0
M  V30 55 H -0.275512 -0.920587 4.583888 0
M  V30 56 H 0.895915 -1.848235 3.657732 0
M  V30 57 H 2.075927 -0.482384 5.285851 0
M  V30 58 H 1.258403 0.979597 4.748660 0
M  V30 59 H 3.514117 0.915141 3.807802 0
M  V30 60 H 3.253092 -0.694313 3.145800 0
M  V30 61 H 1.832652 1.883305 2.324332 0
M  V30 62 H 3.017053 0.996166 1.377983 0
M  V30 63 H 0.608123 0.631838 0.677019 0
M  V30 64 H 1.570836 -2.022867 1.455018 0
M  V30 65 H 2.096813 0.602335 -0.704884 0
M  V30 66 H 3.114398 -1.202796 -2.848893 0
M  V30 67 H 4.551379 -0.420972 -0.682495 0
M  V30 68 H 6.909064 0.137642 -0.721783 0
M  V30 69 H 6.586002 1.427374 -1.882725 0
M  V30 70 H 6.664727 0.533853 1.661025 0
M  V30 71 H 6.200233 2.108287 3.505183 0
M  V30 72 H 5.177677 4.317805 3.034990 0
M  V30 73 H 4.622839 4.956836 0.702372 0
M  V30 74 H 5.088070 3.394985 -1.158364 0
M  V30 75 H 0.009331 -0.498701 -2.474995 0
M  V30 76 H -0.247436 -0.219363 -4.195883 0
M  V30 77 H 0.740710 -1.587102 -3.666783 0
M  V30 78 H 1.491840 0.552524 -5.674280 0
M  V30 79 H 2.638191 -0.710835 -5.211660 0
M  V30 80 H 3.102958 0.995328 -5.135335 0
M  V30 81 H 2.179024 2.490585 -3.230591 0
M  V30 82 H 0.579370 2.152059 -3.887505 0
M  V30 83 H 0.900904 1.869574 -2.177030 0
M  V30 84 H -2.571410 -0.514732 3.682875 0
M  V30 85 H -3.405305 -3.461114 3.046853 0
M  V30 86 H -3.212368 -4.068453 1.400501 0
M  V30 87 H -4.464836 -4.731167 2.461648 0
M  V30 88 H -6.545920 -3.235304 3.066255 0
M  V30 89 H -6.649754 -1.599716 2.397123 0
M  V30 90 H -5.458220 -1.984489 3.641717 0
M  V30 91 H -6.571778 -2.836082 0.130135 0
M  V30 92 H -5.163298 -3.840812 -0.281553 0
M  V30 93 H -6.300813 -4.367778 0.956123 0
M  V30 94 H -4.945975 -1.673786 -0.917175 0
M  V30 END ATOM
M  V30 BEGIN BOND
M  V30 1 1 1 2
M  V30 2 1 2 3
M  V30 3 1 2 4
M  V30 4 1 2 5
M  V30 5 2 5 6
M  V30 6 1 6 7
M  V30 7 1 7 8
M  V30 8 2 8 9
M  V30 9 1 9 10
M  V30 10 1 10 11
M  V30 11 1 11 12
M  V30 12 1 12 13
M  V30 13 1 13 14
M  V30 14 1 14 15
M  V30 15 1 15 16
M  V30 16 1 16 17
M  V30 17 2 17 18
M  V30 18 1 17 19
M  V30 19 1 19 20
M  V30 20 1 20 21
M  V30 21 2 21 22
M  V30 22 1 21 23
M  V30 23 1 23 24
M  V30 24 1 24 25
M  V30 25 2 25 26
M  V30 26 1 26 27
M  V30 27 2 27 28
M  V30 28 1 28 29
M  V30 29 2 29 30
M  V30 30 1 20 31
M  V30 31 1 31 32
M  V30 32 1 31 33
M  V30 33 1 31 34
M  V30 34 2 7 35
M  V30 35 1 35 36
M  V30 36 1 35 37
M  V30 37 1 37 38
M  V30 38 1 38 39
M  V30 39 1 38 40
M  V30 40 1 38 41
M  V30 41 2 37 42
M  V30 42 1 42 5
M  V30 43 1 15 10
M  V30 44 1 30 25
M  V30 45 1 1 43
M  V30 46 1 1 44
M  V30 47 1 1 45
M  V30 48 1 3 46
M  V30 49 1 3 47
M  V30 50 1 3 48
M  V30 51 1 4 49
M  V30 52 1 4 50
M  V30 53 1 4 51
M  V30 54 1 6 52
M  V30 55 1 8 53
M  V30 56 1 10 54 CFG=3
M  V30 57 1 11 55
M  V30 58 1 11 56
M  V30 59 1 12 57
M  V30 60 1 12 58
M  V30 61 1 13 59
M  V30 62 1 13 60
M  V30 63 1 14 61
M  V30 64 1 14 62
M  V30 65 1 15 63 CFG=3
M  V30 66 1 16 64
M  V30 67 1 19 65
M  V30 68 1 20 66 CFG=3
M  V30 69 1 23 67
M  V30 70 1 24 68
M  V30 71 1 24 69
M  V30 72 1 26 70
M  V30 73 1 27 71
M  V30 74 1 28 72
M  V30 75 1 29 73
M  V30 76 1 30 74
M  V30 77 1 32 75
M  V30 78 1 32 76
M  V30 79 1 32 77
M  V30 80 1 33 78
M  V30 81 1 33 79
M  V30 82 1 33 80
M  V30 83 1 34 81
M  V30 84 1 34 82
M  V30 85 1 34 83
M  V30 86 1 36 84
M  V30 87 1 39 85
M  V30 88 1 39 86
M  V30 89 1 39 87
M  V30 90 1 40 88
M  V30 91 1 40 89
M  V30 92 1 40 90
M  V30 93 1 41 91
M  V30 94 1 41 92
M  V30 95 1 41 93
M  V30 96 1 42 94
M  V30 END BOND
M  V30 END CTAB
M  END
>  <catalyst_id>  (1) 
SBJDFTRKPOJHLT_CNRCNKRLSA_NONE

>  <source_smiles>  (1) 
CC(C)(C)c1cc(/C=N\[C@@H]2CCCC[C@H]2NC(=S)N[C@H](C(=O)NCc2ccccc2)C(C)(C)C)c(O)c(C(C)(C)C)c1

>  <axial_configuration>  (1) 
none

>  <inchikey>  (1) 
SBJDFTRKPOJHLT-CNRCNKRLSA-N

>  <build_source>  (1) 
smiles

>  <rdkit_version>  (1) 
2025.09.6

>  <random_seed>  (1) 
42

>  <generated_at>  (1) 
2026-05-19T12:34:44

$$$$
