catalyst158
     RDKit          3D

  0  0  0  0  0  0  0  0  0  0999 V3000
M  V30 BEGIN CTAB
M  V30 COUNTS 44 47 0 0 0
M  V30 BEGIN ATOM
M  V30 1 C -4.101812 1.812034 2.178195 0
M  V30 2 C -3.150273 0.998091 1.702602 0
M  V30 3 C -2.826433 0.847835 0.234499 0 CFG=1
M  V30 4 C -1.344604 1.189421 -0.070596 0
M  V30 5 N -0.729682 0.223354 -1.016324 0
M  V30 6 C -1.613532 0.111052 -2.201677 0
M  V30 7 C -2.969107 -0.518576 -1.833930 0
M  V30 8 C -3.102054 -0.579420 -0.299716 0 CFG=1
M  V30 9 C -2.008186 -1.536490 0.216796 0
M  V30 10 C -0.635753 -1.129179 -0.383322 0 CFG=2
M  V30 11 C 0.523661 -1.294343 0.652772 0 CFG=1
M  V30 12 O 0.487225 -2.626907 1.195084 0
M  V30 13 C 1.908687 -1.060764 0.064855 0
M  V30 14 C 2.394062 -1.995039 -0.864360 0
M  V30 15 C 3.647744 -1.814025 -1.408640 0
M  V30 16 N 4.452884 -0.783075 -1.097300 0
M  V30 17 C 4.004904 0.125715 -0.217671 0
M  V30 18 C 4.847932 1.186159 0.084956 0
M  V30 19 C 4.486515 2.186105 0.987249 0
M  V30 20 C 3.249089 2.129215 1.607070 0
M  V30 21 C 2.382535 1.073010 1.321249 0
M  V30 22 C 2.734147 0.047791 0.406538 0
M  V30 23 H -4.291968 1.880138 3.245275 0
M  V30 24 H -4.713743 2.423963 1.522525 0
M  V30 25 H -2.571463 0.410244 2.412183 0
M  V30 26 H -3.458615 1.545561 -0.333824 0
M  V30 27 H -1.291508 2.195089 -0.508445 0
M  V30 28 H -0.746586 1.250714 0.844835 0
M  V30 29 H -1.764612 1.102916 -2.646441 0
M  V30 30 H -1.122842 -0.486959 -2.979513 0
M  V30 31 H -3.043920 -1.528105 -2.255929 0
M  V30 32 H -3.783700 0.075089 -2.264944 0
M  V30 33 H -4.097478 -0.934619 -0.011420 0
M  V30 34 H -1.986589 -1.531685 1.311769 0
M  V30 35 H -2.245404 -2.563210 -0.089378 0
M  V30 36 H -0.425527 -1.852223 -1.185601 0
M  V30 37 H 0.338389 -0.645209 1.510122 0
M  V30 38 H 1.347277 -2.777185 1.625901 0
M  V30 39 H 1.800866 -2.855577 -1.159109 0
M  V30 40 H 4.052164 -2.516764 -2.131163 0
M  V30 41 H 5.819893 1.235247 -0.401232 0
M  V30 42 H 5.171820 3.002543 1.197356 0
M  V30 43 H 2.952800 2.903928 2.309523 0
M  V30 44 H 1.422797 1.074139 1.826862 0
M  V30 END ATOM
M  V30 BEGIN BOND
M  V30 1 2 1 2
M  V30 2 1 2 3
M  V30 3 1 3 4
M  V30 4 1 4 5
M  V30 5 1 5 6
M  V30 6 1 6 7
M  V30 7 1 7 8
M  V30 8 1 8 9
M  V30 9 1 9 10
M  V30 10 1 10 11
M  V30 11 1 11 12
M  V30 12 1 11 13
M  V30 13 2 13 14
M  V30 14 1 14 15
M  V30 15 2 15 16
M  V30 16 1 16 17
M  V30 17 2 17 18
M  V30 18 1 18 19
M  V30 19 2 19 20
M  V30 20 1 20 21
M  V30 21 2 21 22
M  V30 22 1 8 3
M  V30 23 1 22 13
M  V30 24 1 10 5
M  V30 25 1 22 17
M  V30 26 1 1 23
M  V30 27 1 1 24
M  V30 28 1 2 25
M  V30 29 1 3 26 CFG=3
M  V30 30 1 4 27
M  V30 31 1 4 28
M  V30 32 1 6 29
M  V30 33 1 6 30
M  V30 34 1 7 31
M  V30 35 1 7 32
M  V30 36 1 8 33 CFG=3
M  V30 37 1 9 34
M  V30 38 1 9 35
M  V30 39 1 10 36 CFG=3
M  V30 40 1 11 37 CFG=1
M  V30 41 1 12 38
M  V30 42 1 14 39
M  V30 43 1 15 40
M  V30 44 1 18 41
M  V30 45 1 19 42
M  V30 46 1 20 43
M  V30 47 1 21 44
M  V30 END BOND
M  V30 END CTAB
M  END
>  <catalyst_id>  (1) 
KMPWYEUPVWOPIM_QAMTZSDWSA_NONE

>  <source_smiles>  (1) 
C=C[C@H]1CN2CC[C@H]1C[C@@H]2[C@@H](O)c1ccnc2ccccc12

>  <axial_configuration>  (1) 
none

>  <inchikey>  (1) 
KMPWYEUPVWOPIM-QAMTZSDWSA-N

>  <build_source>  (1) 
smiles

>  <rdkit_version>  (1) 
2025.09.6

>  <random_seed>  (1) 
42

>  <generated_at>  (1) 
2026-05-19T12:30:13

$$$$
