catalyst334
     RDKit          3D

  0  0  0  0  0  0  0  0  0  0999 V3000
M  V30 BEGIN CTAB
M  V30 COUNTS 36 36 0 0 0
M  V30 BEGIN ATOM
M  V30 1 C -3.660893 -1.147384 -0.191069 0
M  V30 2 C -3.447243 0.372626 -0.240267 0
M  V30 3 C -3.426906 0.963605 1.177032 0
M  V30 4 C -4.629325 0.997272 -1.001912 0
M  V30 5 O -2.285292 0.746985 -1.015966 0
M  V30 6 C -1.075240 0.311880 -0.557473 0
M  V30 7 C -0.543646 -0.881940 -1.036999 0
M  V30 8 C 0.721610 -1.298251 -0.618994 0
M  V30 9 C 1.475287 -0.507880 0.260727 0
M  V30 10 C 2.848996 -0.959192 0.701250 0
M  V30 11 C 3.940785 -0.692873 -0.344984 0 CFG=2
M  V30 12 N 5.156467 -1.489107 -0.014219 0
M  V30 13 C 4.288886 0.800648 -0.379929 0
M  V30 14 O 3.773514 1.659506 -1.075498 0
M  V30 15 O 5.269869 1.139412 0.490733 0
M  V30 16 C 0.947417 0.713869 0.699192 0
M  V30 17 C -0.318064 1.128143 0.278426 0
M  V30 18 H -2.887328 -1.643053 0.404967 0
M  V30 19 H -3.622334 -1.581977 -1.196088 0
M  V30 20 H -4.628453 -1.399680 0.256696 0
M  V30 21 H -3.219978 2.039208 1.150923 0
M  V30 22 H -2.650304 0.500279 1.794725 0
M  V30 23 H -4.384013 0.808925 1.687265 0
M  V30 24 H -4.674311 0.617723 -2.029514 0
M  V30 25 H -5.586970 0.787028 -0.513982 0
M  V30 26 H -4.511864 2.084638 -1.078612 0
M  V30 27 H -1.108019 -1.487462 -1.739660 0
M  V30 28 H 1.119069 -2.240239 -0.991014 0
M  V30 29 H 2.789260 -2.034876 0.917712 0
M  V30 30 H 3.102601 -0.479582 1.656336 0
M  V30 31 H 3.621156 -0.989897 -1.349978 0
M  V30 32 H 5.570076 -1.068935 0.824019 0
M  V30 33 H 5.850450 -1.326756 -0.745159 0
M  V30 34 H 5.369398 2.105906 0.354900 0
M  V30 35 H 1.521060 1.360653 1.358747 0
M  V30 36 H -0.705716 2.090776 0.597836 0
M  V30 END ATOM
M  V30 BEGIN BOND
M  V30 1 1 1 2
M  V30 2 1 2 3
M  V30 3 1 2 4
M  V30 4 1 2 5
M  V30 5 1 5 6
M  V30 6 2 6 7
M  V30 7 1 7 8
M  V30 8 2 8 9
M  V30 9 1 9 10
M  V30 10 1 10 11
M  V30 11 1 11 12
M  V30 12 1 11 13
M  V30 13 2 13 14
M  V30 14 1 13 15
M  V30 15 1 9 16
M  V30 16 2 16 17
M  V30 17 1 17 6
M  V30 18 1 1 18
M  V30 19 1 1 19
M  V30 20 1 1 20
M  V30 21 1 3 21
M  V30 22 1 3 22
M  V30 23 1 3 23
M  V30 24 1 4 24
M  V30 25 1 4 25
M  V30 26 1 4 26
M  V30 27 1 7 27
M  V30 28 1 8 28
M  V30 29 1 10 29
M  V30 30 1 10 30
M  V30 31 1 11 31 CFG=3
M  V30 32 1 12 32
M  V30 33 1 12 33
M  V30 34 1 15 34
M  V30 35 1 16 35
M  V30 36 1 17 36
M  V30 END BOND
M  V30 END CTAB
M  END
>  <catalyst_id>  (1) 
SNZIFNXFAFKRKT_NSHDSACASA_NONE

>  <source_smiles>  (1) 
CC(C)(C)Oc1ccc(C[C@H](N)C(=O)O)cc1

>  <axial_configuration>  (1) 
none

>  <inchikey>  (1) 
SNZIFNXFAFKRKT-NSHDSACASA-N

>  <build_source>  (1) 
smiles

>  <rdkit_version>  (1) 
2025.09.6

>  <random_seed>  (1) 
42

>  <generated_at>  (1) 
2026-05-19T12:30:03

$$$$
