catalyst167
     RDKit          3D

  0  0  0  0  0  0  0  0  0  0999 V3000
M  V30 BEGIN CTAB
M  V30 COUNTS 53 56 0 0 0
M  V30 BEGIN ATOM
M  V30 1 C -5.605982 0.714001 -0.293141 0
M  V30 2 C -4.279686 0.538640 -0.229315 0
M  V30 3 C -3.581507 -0.755107 -0.578328 0 CFG=1
M  V30 4 C -2.525928 -0.563660 -1.698072 0
M  V30 5 N -1.242683 -1.239065 -1.380903 0
M  V30 6 C -1.540096 -2.661446 -1.079417 0
M  V30 7 C -2.395343 -2.800118 0.191660 0
M  V30 8 C -2.877103 -1.406414 0.637896 0 CFG=1
M  V30 9 C -1.624832 -0.586332 1.006489 0
M  V30 10 C -0.607187 -0.631587 -0.162596 0 CFG=2
M  V30 11 C 0.114097 0.734525 -0.438907 0 CFG=1
M  V30 12 O -0.856383 1.804544 -0.511325 0
M  V30 13 C -0.558007 2.825475 -1.359368 0
M  V30 14 C -1.667458 3.832397 -1.343582 0
M  V30 15 O 0.451567 2.927446 -2.039375 0
M  V30 16 C 1.147952 1.030957 0.651082 0
M  V30 17 C 0.790227 1.829178 1.747214 0
M  V30 18 C 1.726029 2.074155 2.730997 0
M  V30 19 N 2.977688 1.581797 2.710983 0
M  V30 20 C 3.337161 0.811140 1.673743 0
M  V30 21 C 4.628830 0.305499 1.666818 0
M  V30 22 C 5.102794 -0.517004 0.640345 0
M  V30 23 C 4.265623 -0.848519 -0.414147 0
M  V30 24 O 4.585177 -1.643566 -1.478602 0
M  V30 25 C 5.919756 -2.131235 -1.540230 0
M  V30 26 C 2.960765 -0.347165 -0.425699 0
M  V30 27 C 2.466082 0.490706 0.606562 0
M  V30 28 H -6.053842 1.668189 -0.031971 0
M  V30 29 H -6.275455 -0.082932 -0.602410 0
M  V30 30 H -3.661630 1.376274 0.086418 0
M  V30 31 H -4.335133 -1.466952 -0.945558 0
M  V30 32 H -2.354745 0.491338 -1.932733 0
M  V30 33 H -2.920997 -0.986075 -2.632151 0
M  V30 34 H -2.053719 -3.122050 -1.932935 0
M  V30 35 H -0.605042 -3.223642 -0.964592 0
M  V30 36 H -3.252522 -3.454317 -0.006130 0
M  V30 37 H -1.808333 -3.266859 0.991873 0
M  V30 38 H -3.551946 -1.489514 1.497016 0
M  V30 39 H -1.912427 0.434972 1.271598 0
M  V30 40 H -1.159055 -1.017673 1.901865 0
M  V30 41 H 0.189378 -1.331774 0.128700 0
M  V30 42 H 0.620177 0.658707 -1.408312 0
M  V30 43 H -1.803866 4.217917 -0.330007 0
M  V30 44 H -1.408864 4.667484 -2.000829 0
M  V30 45 H -2.589515 3.372837 -1.708175 0
M  V30 46 H -0.201658 2.258256 1.842825 0
M  V30 47 H 1.485742 2.691584 3.591801 0
M  V30 48 H 5.291812 0.559230 2.491444 0
M  V30 49 H 6.123974 -0.876185 0.704013 0
M  V30 50 H 6.137568 -2.790211 -0.693308 0
M  V30 51 H 6.017657 -2.722477 -2.455790 0
M  V30 52 H 6.639608 -1.307931 -1.596558 0
M  V30 53 H 2.331282 -0.627438 -1.267291 0
M  V30 END ATOM
M  V30 BEGIN BOND
M  V30 1 2 1 2
M  V30 2 1 2 3
M  V30 3 1 3 4
M  V30 4 1 4 5
M  V30 5 1 5 6
M  V30 6 1 6 7
M  V30 7 1 7 8
M  V30 8 1 8 9
M  V30 9 1 9 10
M  V30 10 1 10 11
M  V30 11 1 11 12
M  V30 12 1 12 13
M  V30 13 1 13 14
M  V30 14 2 13 15
M  V30 15 1 11 16
M  V30 16 2 16 17
M  V30 17 1 17 18
M  V30 18 2 18 19
M  V30 19 1 19 20
M  V30 20 2 20 21
M  V30 21 1 21 22
M  V30 22 2 22 23
M  V30 23 1 23 24
M  V30 24 1 24 25
M  V30 25 1 23 26
M  V30 26 2 26 27
M  V30 27 1 8 3
M  V30 28 1 27 16
M  V30 29 1 10 5
M  V30 30 1 27 20
M  V30 31 1 1 28
M  V30 32 1 1 29
M  V30 33 1 2 30
M  V30 34 1 3 31 CFG=3
M  V30 35 1 4 32
M  V30 36 1 4 33
M  V30 37 1 6 34
M  V30 38 1 6 35
M  V30 39 1 7 36
M  V30 40 1 7 37
M  V30 41 1 8 38 CFG=1
M  V30 42 1 9 39
M  V30 43 1 9 40
M  V30 44 1 10 41 CFG=1
M  V30 45 1 11 42 CFG=3
M  V30 46 1 14 43
M  V30 47 1 14 44
M  V30 48 1 14 45
M  V30 49 1 17 46
M  V30 50 1 18 47
M  V30 51 1 21 48
M  V30 52 1 22 49
M  V30 53 1 25 50
M  V30 54 1 25 51
M  V30 55 1 25 52
M  V30 56 1 26 53
M  V30 END BOND
M  V30 END CTAB
M  END
>  <catalyst_id>  (1) 
LBXIBQQYUBUMMK_FRMGNDQPSA_NONE

>  <source_smiles>  (1) 
C=C[C@H]1CN2CC[C@H]1C[C@@H]2[C@@H](OC(C)=O)c1ccnc2ccc(OC)cc12

>  <axial_configuration>  (1) 
none

>  <inchikey>  (1) 
LBXIBQQYUBUMMK-FRMGNDQPSA-N

>  <build_source>  (1) 
smiles

>  <rdkit_version>  (1) 
2025.09.6

>  <random_seed>  (1) 
42

>  <generated_at>  (1) 
2026-05-19T12:30:17

$$$$
