catalyst378
     RDKit          3D

  0  0  0  0  0  0  0  0  0  0999 V3000
M  V30 BEGIN CTAB
M  V30 COUNTS 85 88 0 0 0
M  V30 BEGIN ATOM
M  V30 1 C 2.994630 -2.655822 0.250439 0
M  V30 2 C 3.173200 -2.407768 -1.238590 0
M  V30 3 C 1.864490 -2.279439 -2.053525 0 CFG=2
M  V30 4 C 2.234926 -2.207528 -3.542725 0
M  V30 5 C 0.919550 -1.100465 -1.660572 0 CFG=1
M  V30 6 C 0.018904 -1.449768 -0.458813 0
M  V30 7 P -1.737812 -1.677755 -0.850136 0 CHG=1
M  V30 8 C -2.346662 -0.048486 -1.349518 0
M  V30 9 C -2.092331 1.145021 -0.459103 0
M  V30 10 C -1.471474 2.285648 -0.980112 0
M  V30 11 C -1.220005 3.399561 -0.175850 0
M  V30 12 C -1.593656 3.404077 1.173401 0
M  V30 13 C -1.335066 4.507763 2.001777 0
M  V30 14 C -1.721393 4.496211 3.342428 0
M  V30 15 C -2.370865 3.383559 3.869238 0
M  V30 16 C -2.634857 2.279739 3.056894 0
M  V30 17 C -2.250046 2.273709 1.706922 0
M  V30 18 C -2.503832 1.165969 0.878302 0
M  V30 19 C -2.641252 -2.248137 0.564061 0
M  V30 20 C -3.987543 -2.608896 0.414321 0
M  V30 21 C -4.734497 -3.054660 1.505298 0
M  V30 22 C -4.143766 -3.144856 2.762675 0
M  V30 23 C -2.807018 -2.790611 2.926815 0
M  V30 24 C -2.060027 -2.346487 1.833703 0
M  V30 25 C -1.860393 -2.872643 -2.154629 0
M  V30 26 C -2.209602 -2.524342 -3.463270 0
M  V30 27 C -2.272144 -3.494344 -4.466482 0
M  V30 28 C -1.989136 -4.825643 -4.172392 0
M  V30 29 C -1.644385 -5.188436 -2.873934 0
M  V30 30 C -1.580584 -4.217947 -1.873586 0
M  V30 31 N 1.661440 0.134400 -1.361215 0
M  V30 32 C 1.833714 1.248763 -2.125020 0
M  V30 33 S 1.365814 1.437336 -3.718655 0
M  V30 34 N 2.484556 2.301850 -1.540588 0
M  V30 35 C 2.690952 2.651166 -0.189371 0
M  V30 36 C 3.608099 3.676863 0.066522 0
M  V30 37 C 3.875428 4.106052 1.377494 0
M  V30 38 C 4.896791 5.188628 1.631318 0
M  V30 39 F 6.156628 4.689424 1.751117 0
M  V30 40 F 4.950821 6.111852 0.631749 0
M  V30 41 F 4.658418 5.889673 2.773801 0
M  V30 42 C 3.210087 3.483278 2.443356 0
M  V30 43 C 2.264349 2.473770 2.208453 0
M  V30 44 C 1.563338 1.809125 3.371174 0
M  V30 45 F 0.966546 2.699476 4.207932 0
M  V30 46 F 0.605658 0.914962 3.004614 0
M  V30 47 F 2.439240 1.106927 4.146140 0
M  V30 48 C 2.002880 2.081432 0.884937 0
M  V30 49 Br 0.000000 0.000000 0.000000 0 CHG=-1
M  V30 50 H 2.543956 -1.797706 0.755780 0
M  V30 51 H 3.969266 -2.832360 0.717516 0
M  V30 52 H 2.374803 -3.539529 0.430320 0
M  V30 53 H 3.799507 -1.518789 -1.381212 0
M  V30 54 H 3.751895 -3.248806 -1.642933 0
M  V30 55 H 1.303011 -3.215175 -1.933661 0
M  V30 56 H 2.890482 -1.357852 -3.754349 0
M  V30 57 H 1.340420 -2.125440 -4.168801 0
M  V30 58 H 2.764435 -3.116126 -3.850557 0
M  V30 59 H 0.261125 -0.894608 -2.508247 0
M  V30 60 H 0.085460 -0.682837 0.319572 0
M  V30 61 H 0.340695 -2.388362 0.000699 0
M  V30 62 H -1.903233 0.164795 -2.328297 0
M  V30 63 H -3.427888 -0.119311 -1.519646 0
M  V30 64 H -1.177011 2.322623 -2.026099 0
M  V30 65 H -0.726309 4.262804 -0.615827 0
M  V30 66 H -0.832433 5.387053 1.605905 0
M  V30 67 H -1.515299 5.355236 3.975345 0
M  V30 68 H -2.670746 3.372032 4.913750 0
M  V30 69 H -3.140505 1.417533 3.486579 0
M  V30 70 H -3.040050 0.316234 1.291781 0
M  V30 71 H -4.460492 -2.546958 -0.563609 0
M  V30 72 H -5.776629 -3.332580 1.371648 0
M  V30 73 H -4.724209 -3.491512 3.613371 0
M  V30 74 H -2.344002 -2.857605 3.907990 0
M  V30 75 H -1.023044 -2.065942 1.993704 0
M  V30 76 H -2.433630 -1.495437 -3.727401 0
M  V30 77 H -2.541600 -3.208321 -5.480103 0
M  V30 78 H -2.039167 -5.578881 -4.953940 0
M  V30 79 H -1.426357 -6.226535 -2.637831 0
M  V30 80 H -1.311884 -4.516791 -0.862401 0
M  V30 81 H 2.296770 0.071550 -0.578436 0
M  V30 82 H 2.788416 2.987962 -2.224739 0
M  V30 83 H 4.141602 4.147235 -0.759444 0
M  V30 84 H 3.421184 3.792377 3.468784 0
M  V30 85 H 1.209345 1.357826 0.718075 0
M  V30 END ATOM
M  V30 BEGIN BOND
M  V30 1 1 1 2
M  V30 2 1 2 3
M  V30 3 1 3 4
M  V30 4 1 3 5
M  V30 5 1 5 6
M  V30 6 1 6 7
M  V30 7 1 7 8
M  V30 8 1 8 9
M  V30 9 2 9 10
M  V30 10 1 10 11
M  V30 11 2 11 12
M  V30 12 1 12 13
M  V30 13 2 13 14
M  V30 14 1 14 15
M  V30 15 2 15 16
M  V30 16 1 16 17
M  V30 17 2 17 18
M  V30 18 1 7 19
M  V30 19 2 19 20
M  V30 20 1 20 21
M  V30 21 2 21 22
M  V30 22 1 22 23
M  V30 23 2 23 24
M  V30 24 1 7 25
M  V30 25 2 25 26
M  V30 26 1 26 27
M  V30 27 2 27 28
M  V30 28 1 28 29
M  V30 29 2 29 30
M  V30 30 1 5 31
M  V30 31 1 31 32
M  V30 32 2 32 33
M  V30 33 1 32 34
M  V30 34 1 34 35
M  V30 35 2 35 36
M  V30 36 1 36 37
M  V30 37 1 37 38
M  V30 38 1 38 39
M  V30 39 1 38 40
M  V30 40 1 38 41
M  V30 41 2 37 42
M  V30 42 1 42 43
M  V30 43 1 43 44
M  V30 44 1 44 45
M  V30 45 1 44 46
M  V30 46 1 44 47
M  V30 47 2 43 48
M  V30 48 1 18 9
M  V30 49 1 24 19
M  V30 50 1 30 25
M  V30 51 1 48 35
M  V30 52 1 17 12
M  V30 53 1 1 50
M  V30 54 1 1 51
M  V30 55 1 1 52
M  V30 56 1 2 53
M  V30 57 1 2 54
M  V30 58 1 3 55 CFG=3
M  V30 59 1 4 56
M  V30 60 1 4 57
M  V30 61 1 4 58
M  V30 62 1 5 59 CFG=3
M  V30 63 1 6 60
M  V30 64 1 6 61
M  V30 65 1 8 62
M  V30 66 1 8 63
M  V30 67 1 10 64
M  V30 68 1 11 65
M  V30 69 1 13 66
M  V30 70 1 14 67
M  V30 71 1 15 68
M  V30 72 1 16 69
M  V30 73 1 18 70
M  V30 74 1 20 71
M  V30 75 1 21 72
M  V30 76 1 22 73
M  V30 77 1 23 74
M  V30 78 1 24 75
M  V30 79 1 26 76
M  V30 80 1 27 77
M  V30 81 1 28 78
M  V30 82 1 29 79
M  V30 83 1 30 80
M  V30 84 1 31 81
M  V30 85 1 34 82
M  V30 86 1 36 83
M  V30 87 1 42 84
M  V30 88 1 48 85
M  V30 END BOND
M  V30 END CTAB
M  END
>  <catalyst_id>  (1) 
WDIBCDOSYWZSAK_CVVFQTBOSA_NONE

>  <source_smiles>  (1) 
CC[C@H](C)[C@@H](C[P+](Cc1ccc2ccccc2c1)(c1ccccc1)c1ccccc1)NC(=S)Nc1cc(C(F)(F)F)cc(C(F)(F)F)c1.[Br-]

>  <axial_configuration>  (1) 
none

>  <inchikey>  (1) 
WDIBCDOSYWZSAK-CVVFQTBOSA-N

>  <build_source>  (1) 
smiles

>  <rdkit_version>  (1) 
2025.09.6

>  <random_seed>  (1) 
42

>  <generated_at>  (1) 
2026-05-19T12:37:03

$$$$
