catalyst242
     RDKit          3D

  0  0  0  0  0  0  0  0  0  0999 V3000
M  V30 BEGIN CTAB
M  V30 COUNTS 78 80 0 0 0
M  V30 BEGIN ATOM
M  V30 1 C -5.795441 5.000346 1.361794 0
M  V30 2 C -4.773084 4.280367 2.186110 0
M  V30 3 O -4.576065 4.481008 3.375397 0
M  V30 4 O -4.115021 3.367043 1.420555 0
M  V30 5 C -3.113177 2.625933 2.126224 0
M  V30 6 C -2.430713 1.606552 1.197940 0 CFG=1
M  V30 7 O -1.295145 1.087689 1.901895 0
M  V30 8 C -0.494187 0.237721 1.067194 0 CFG=1
M  V30 9 O 0.681592 -0.206797 1.770626 0
M  V30 10 N 1.208673 0.868990 2.519813 0
M  V30 11 C 2.352933 1.461163 2.128335 0
M  V30 12 S 2.600354 3.068768 2.511863 0
M  V30 13 N 3.308413 0.808416 1.439714 0
M  V30 14 C 3.397927 -0.578079 0.969277 0 CFG=2
M  V30 15 C 3.534017 -1.566617 2.136236 0
M  V30 16 C 3.615272 -3.004483 1.632551 0
M  V30 17 C 4.755467 -3.190562 0.638251 0
M  V30 18 C 4.681776 -2.192880 -0.518474 0
M  V30 19 C 4.613467 -0.740205 -0.006887 0 CFG=1
M  V30 20 N 4.614975 0.307900 -1.044338 0
M  V30 21 C 3.478408 0.328852 -1.961769 0
M  V30 22 C 3.920551 1.292672 -3.057788 0
M  V30 23 C 5.431258 1.423997 -2.899320 0
M  V30 24 C 5.808138 0.360098 -1.882279 0
M  V30 25 C -1.306382 -1.006790 0.675672 0 CFG=2
M  V30 26 O -0.564718 -1.982871 -0.107648 0
M  V30 27 C -0.020865 -1.596400 -1.288371 0
M  V30 28 C 0.670545 -2.752258 -1.941799 0
M  V30 29 O -0.094690 -0.473670 -1.763462 0
M  V30 30 C -2.632012 -0.624700 -0.001157 0 CFG=1
M  V30 31 O -3.430740 -1.839485 -0.042737 0
M  V30 32 C -4.211492 -2.044145 -1.135360 0
M  V30 33 C -4.965659 -3.330039 -0.992438 0
M  V30 34 O -4.299069 -1.294127 -2.096370 0
M  V30 35 C -3.385740 0.465018 0.790976 0 CFG=2
M  V30 36 O -4.424467 1.021482 -0.044791 0
M  V30 37 C -5.682746 0.535829 0.118393 0
M  V30 38 C -6.621021 1.211552 -0.833173 0
M  V30 39 O -6.009198 -0.333249 0.913603 0
M  V30 40 H -6.582225 4.305198 1.059451 0
M  V30 41 H -6.241512 5.802064 1.957234 0
M  V30 42 H -5.319223 5.447717 0.485541 0
M  V30 43 H -2.356552 3.321057 2.512507 0
M  V30 44 H -3.560323 2.108008 2.984403 0
M  V30 45 H -2.093973 2.143220 0.300267 0
M  V30 46 H -0.149003 0.815068 0.203927 0
M  V30 47 H 0.498068 1.488645 2.907377 0
M  V30 48 H 4.051605 1.409689 1.096082 0
M  V30 49 H 2.481160 -0.799152 0.413412 0
M  V30 50 H 4.432030 -1.329355 2.721482 0
M  V30 51 H 2.690190 -1.480044 2.828377 0
M  V30 52 H 2.665762 -3.277977 1.156128 0
M  V30 53 H 3.753669 -3.684255 2.480862 0
M  V30 54 H 5.713874 -3.070785 1.158604 0
M  V30 55 H 4.734927 -4.212505 0.242847 0
M  V30 56 H 3.802875 -2.426739 -1.129579 0
M  V30 57 H 5.562222 -2.342966 -1.152005 0
M  V30 58 H 5.518506 -0.562805 0.593209 0
M  V30 59 H 3.284724 -0.654139 -2.404393 0
M  V30 60 H 2.560328 0.682113 -1.483010 0
M  V30 61 H 3.657977 0.904019 -4.047492 0
M  V30 62 H 3.443401 2.272439 -2.943325 0
M  V30 63 H 5.956994 1.289757 -3.849699 0
M  V30 64 H 5.676459 2.422671 -2.517565 0
M  V30 65 H 6.000304 -0.586610 -2.398865 0
M  V30 66 H 6.702100 0.644851 -1.319026 0
M  V30 67 H -1.548117 -1.548346 1.600615 0
M  V30 68 H 1.235283 -2.394536 -2.807314 0
M  V30 69 H 1.373093 -3.210506 -1.241173 0
M  V30 70 H -0.069433 -3.483317 -2.275903 0
M  V30 71 H -2.450174 -0.278150 -1.024213 0
M  V30 72 H -5.615815 -3.282885 -0.115307 0
M  V30 73 H -4.263995 -4.163619 -0.907849 0
M  V30 74 H -5.586857 -3.486093 -1.879013 0
M  V30 75 H -3.809899 0.016142 1.698978 0
M  V30 76 H -7.638950 0.854491 -0.652920 0
M  V30 77 H -6.600014 2.292052 -0.671153 0
M  V30 78 H -6.341614 0.971542 -1.861894 0
M  V30 END ATOM
M  V30 BEGIN BOND
M  V30 1 1 1 2
M  V30 2 2 2 3
M  V30 3 1 2 4
M  V30 4 1 4 5
M  V30 5 1 5 6
M  V30 6 1 6 7
M  V30 7 1 7 8
M  V30 8 1 8 9
M  V30 9 1 9 10
M  V30 10 1 10 11
M  V30 11 2 11 12
M  V30 12 1 11 13
M  V30 13 1 13 14
M  V30 14 1 14 15
M  V30 15 1 15 16
M  V30 16 1 16 17
M  V30 17 1 17 18
M  V30 18 1 18 19
M  V30 19 1 19 20
M  V30 20 1 20 21
M  V30 21 1 21 22
M  V30 22 1 22 23
M  V30 23 1 23 24
M  V30 24 1 8 25
M  V30 25 1 25 26
M  V30 26 1 26 27
M  V30 27 1 27 28
M  V30 28 2 27 29
M  V30 29 1 25 30
M  V30 30 1 30 31
M  V30 31 1 31 32
M  V30 32 1 32 33
M  V30 33 2 32 34
M  V30 34 1 30 35
M  V30 35 1 35 36
M  V30 36 1 36 37
M  V30 37 1 37 38
M  V30 38 2 37 39
M  V30 39 1 35 6
M  V30 40 1 19 14
M  V30 41 1 24 20
M  V30 42 1 1 40
M  V30 43 1 1 41
M  V30 44 1 1 42
M  V30 45 1 5 43
M  V30 46 1 5 44
M  V30 47 1 6 45 CFG=3
M  V30 48 1 8 46 CFG=3
M  V30 49 1 10 47
M  V30 50 1 13 48
M  V30 51 1 14 49 CFG=3
M  V30 52 1 15 50
M  V30 53 1 15 51
M  V30 54 1 16 52
M  V30 55 1 16 53
M  V30 56 1 17 54
M  V30 57 1 17 55
M  V30 58 1 18 56
M  V30 59 1 18 57
M  V30 60 1 19 58 CFG=1
M  V30 61 1 21 59
M  V30 62 1 21 60
M  V30 63 1 22 61
M  V30 64 1 22 62
M  V30 65 1 23 63
M  V30 66 1 23 64
M  V30 67 1 24 65
M  V30 68 1 24 66
M  V30 69 1 25 67 CFG=1
M  V30 70 1 28 68
M  V30 71 1 28 69
M  V30 72 1 28 70
M  V30 73 1 30 71 CFG=3
M  V30 74 1 33 72
M  V30 75 1 33 73
M  V30 76 1 33 74
M  V30 77 1 35 75 CFG=1
M  V30 78 1 38 76
M  V30 79 1 38 77
M  V30 80 1 38 78
M  V30 END BOND
M  V30 END CTAB
M  END
>  <catalyst_id>  (1) 
ONEXSFHIBNAVHL_AAALWKFZSA_NONE

>  <source_smiles>  (1) 
CC(=O)OC[C@H]1O[C@@H](ONC(=S)N[C@@H]2CCCC[C@H]2N2CCCC2)[C@H](OC(C)=O)[C@@H](OC(C)=O)[C@@H]1OC(C)=O

>  <axial_configuration>  (1) 
none

>  <inchikey>  (1) 
ONEXSFHIBNAVHL-AAALWKFZSA-N

>  <build_source>  (1) 
smiles

>  <rdkit_version>  (1) 
2025.09.6

>  <random_seed>  (1) 
42

>  <generated_at>  (1) 
2026-05-19T12:33:20

$$$$
