catalyst377
     RDKit          3D

  0  0  0  0  0  0  0  0  0  0999 V3000
M  V30 BEGIN CTAB
M  V30 COUNTS 42 45 0 0 0
M  V30 BEGIN ATOM
M  V30 1 O -0.526953 -0.186585 -1.858420 0
M  V30 2 C -0.538903 -0.043845 -0.420340 0
M  V30 3 C -1.827348 -0.701862 0.123144 0
M  V30 4 C -2.801481 -1.236523 -0.739711 0
M  V30 5 C -3.958862 -1.837447 -0.238384 0
M  V30 6 C -4.168357 -1.912314 1.135364 0
M  V30 7 C -3.223134 -1.383556 2.009210 0
M  V30 8 C -2.065106 -0.782707 1.509355 0
M  V30 9 C -0.583331 1.467247 -0.111537 0
M  V30 10 C 0.034373 2.031317 1.019667 0
M  V30 11 C -0.046029 3.403213 1.277810 0
M  V30 12 C -0.758678 4.237185 0.421594 0
M  V30 13 C -1.400511 3.700382 -0.689375 0
M  V30 14 C -1.319778 2.330477 -0.948518 0
M  V30 15 C 0.718892 -0.805481 0.113387 0 CFG=1
M  V30 16 C 0.657034 -2.331018 -0.190208 0
M  V30 17 N 2.041929 -2.838199 -0.219353 0
M  V30 18 C 2.760648 -1.705612 -0.674710 0
M  V30 19 C 4.062176 -1.725945 -1.144234 0
M  V30 20 C 4.660955 -0.516758 -1.499189 0
M  V30 21 C 3.962594 0.689498 -1.353768 0
M  V30 22 C 2.661049 0.703483 -0.843789 0
M  V30 23 C 2.066348 -0.503278 -0.504070 0
M  V30 24 H 0.206544 0.366020 -2.181742 0
M  V30 25 H -2.667700 -1.190295 -1.818901 0
M  V30 26 H -4.697266 -2.244181 -0.924487 0
M  V30 27 H -5.070204 -2.377483 1.524051 0
M  V30 28 H -3.388404 -1.433816 3.082421 0
M  V30 29 H -1.352382 -0.371021 2.220196 0
M  V30 30 H 0.591865 1.419097 1.723679 0
M  V30 31 H 0.444727 3.819142 2.154435 0
M  V30 32 H -0.824266 5.302317 0.626929 0
M  V30 33 H -1.974143 4.344023 -1.351311 0
M  V30 34 H -1.852404 1.931327 -1.811003 0
M  V30 35 H 0.826132 -0.689325 1.199790 0
M  V30 36 H 0.084581 -2.868232 0.573471 0
M  V30 37 H 0.191919 -2.538556 -1.163000 0
M  V30 38 H 2.182531 -3.632956 -0.838465 0
M  V30 39 H 4.608587 -2.658579 -1.230914 0
M  V30 40 H 5.679772 -0.509234 -1.878004 0
M  V30 41 H 4.445941 1.625631 -1.624173 0
M  V30 42 H 2.156642 1.654451 -0.716637 0
M  V30 END ATOM
M  V30 BEGIN BOND
M  V30 1 1 1 2
M  V30 2 1 2 3
M  V30 3 2 3 4
M  V30 4 1 4 5
M  V30 5 2 5 6
M  V30 6 1 6 7
M  V30 7 2 7 8
M  V30 8 1 2 9
M  V30 9 2 9 10
M  V30 10 1 10 11
M  V30 11 2 11 12
M  V30 12 1 12 13
M  V30 13 2 13 14
M  V30 14 1 2 15
M  V30 15 1 15 16
M  V30 16 1 16 17
M  V30 17 1 17 18
M  V30 18 2 18 19
M  V30 19 1 19 20
M  V30 20 2 20 21
M  V30 21 1 21 22
M  V30 22 2 22 23
M  V30 23 1 8 3
M  V30 24 1 14 9
M  V30 25 1 23 15
M  V30 26 1 23 18
M  V30 27 1 1 24
M  V30 28 1 4 25
M  V30 29 1 5 26
M  V30 30 1 6 27
M  V30 31 1 7 28
M  V30 32 1 8 29
M  V30 33 1 10 30
M  V30 34 1 11 31
M  V30 35 1 12 32
M  V30 36 1 13 33
M  V30 37 1 14 34
M  V30 38 1 15 35 CFG=1
M  V30 39 1 16 36
M  V30 40 1 16 37
M  V30 41 1 17 38
M  V30 42 1 19 39
M  V30 43 1 20 40
M  V30 44 1 21 41
M  V30 45 1 22 42
M  V30 END BOND
M  V30 END CTAB
M  END
>  <catalyst_id>  (1) 
WADBXYMEORPORZ_IBGZPJMESA_NONE

>  <source_smiles>  (1) 
OC(c1ccccc1)(c1ccccc1)[C@H]1CNc2ccccc21

>  <axial_configuration>  (1) 
none

>  <inchikey>  (1) 
WADBXYMEORPORZ-IBGZPJMESA-N

>  <build_source>  (1) 
smiles

>  <rdkit_version>  (1) 
2025.09.6

>  <random_seed>  (1) 
42

>  <generated_at>  (1) 
2026-05-19T12:31:42

$$$$
