catalyst6
     RDKit          3D

  0  0  0  0  0  0  0  0  0  0999 V3000
M  V30 BEGIN CTAB
M  V30 COUNTS 96 102 0 0 0
M  V30 BEGIN ATOM
M  V30 1 C -0.845278 -1.102376 -4.706840 0
M  V30 2 C -1.076225 -0.564763 -3.501948 0
M  V30 3 C -1.926609 -1.214544 -2.440178 0 CFG=1
M  V30 4 C -1.146993 -1.397650 -1.112809 0
M  V30 5 N -1.984522 -1.095685 0.080754 0
M  V30 6 C -3.259647 -1.845788 -0.052765 0
M  V30 7 C -4.094095 -1.334339 -1.241176 0
M  V30 8 C -3.218783 -0.422348 -2.122645 0 CFG=1
M  V30 9 C -2.861006 0.822887 -1.284820 0
M  V30 10 C -2.319231 0.375436 0.093523 0 CFG=2
M  V30 11 C -1.133026 1.274335 0.614846 0 CFG=2
M  V30 12 N -0.363888 0.497892 1.612903 0
M  V30 13 C 0.838616 0.795991 2.168222 0
M  V30 14 S 1.538163 2.304042 2.295316 0
M  V30 15 N 1.549863 -0.239600 2.682236 0
M  V30 16 C 1.296357 -1.674511 2.612498 0 CFG=2
M  V30 17 C 0.524690 -2.198452 3.796304 0
M  V30 18 C -0.585970 -1.650876 4.421451 0
M  V30 19 C -1.162211 -2.342839 5.489237 0
M  V30 20 C -0.635237 -3.571605 5.913427 0
M  V30 21 C 0.476061 -4.126089 5.276835 0
M  V30 22 C 1.048140 -3.427020 4.226481 0
M  V30 23 C 2.213962 -3.845029 3.382189 0
M  V30 24 C 2.615449 -2.497122 2.746320 0 CFG=1
M  V30 25 O 3.469025 -2.539833 1.591185 0
M  V30 26 C 2.944091 -3.062457 0.439463 0
M  V30 27 C 2.923412 -4.446901 0.266284 0
M  V30 28 C 2.448676 -4.997589 -0.923066 0
M  V30 29 C 2.026533 -4.167176 -1.969691 0
M  V30 30 C 1.518765 -4.777836 -3.253777 0
M  V30 31 F 2.477920 -5.495302 -3.901442 0
M  V30 32 F 0.491266 -5.647408 -3.035172 0
M  V30 33 F 1.050314 -3.874351 -4.155842 0
M  V30 34 C 2.118154 -2.773386 -1.812334 0
M  V30 35 C 2.594888 -2.208611 -0.623081 0
M  V30 36 N 2.759204 -0.817311 -0.438026 0
M  V30 37 C 2.597251 0.184487 -1.368362 0
M  V30 38 O 2.261818 0.044887 -2.537115 0
M  V30 39 N 2.876666 1.421708 -0.827553 0
M  V30 40 C 2.732209 2.628273 -1.620534 0
M  V30 41 C 3.927055 2.858107 -2.528362 0
M  V30 42 C -1.677252 2.589254 1.164225 0
M  V30 43 C -2.327935 2.577651 2.408178 0
M  V30 44 C -2.852076 3.753472 2.902061 0
M  V30 45 N -2.785053 4.929908 2.253281 0
M  V30 46 C -2.156384 4.963753 1.068944 0
M  V30 47 C -2.081213 6.187699 0.420266 0
M  V30 48 C -1.448256 6.340529 -0.817036 0
M  V30 49 C -0.872319 5.239683 -1.431021 0
M  V30 50 O -0.213555 5.232873 -2.628278 0
M  V30 51 C -0.185389 6.457558 -3.352146 0
M  V30 52 C -0.940368 3.997530 -0.793580 0
M  V30 53 C -1.577901 3.824515 0.461498 0
M  V30 54 H -1.272324 -2.054942 -5.004025 0
M  V30 55 H -0.198198 -0.599471 -5.419632 0
M  V30 56 H -0.594102 0.382810 -3.264869 0
M  V30 57 H -2.224318 -2.211637 -2.797110 0
M  V30 58 H -0.799200 -2.435866 -1.040869 0
M  V30 59 H -0.240489 -0.783777 -1.084721 0
M  V30 60 H -3.047961 -2.916754 -0.168152 0
M  V30 61 H -3.840770 -1.759495 0.873910 0
M  V30 62 H -4.468391 -2.183961 -1.824042 0
M  V30 63 H -4.968085 -0.779187 -0.879472 0
M  V30 64 H -3.754019 -0.137212 -3.035025 0
M  V30 65 H -2.137385 1.439252 -1.825694 0
M  V30 66 H -3.756797 1.438879 -1.138688 0
M  V30 67 H -3.136815 0.481981 0.822008 0
M  V30 68 H -0.417902 1.440653 -0.195016 0
M  V30 69 H -0.611427 -0.482808 1.544686 0
M  V30 70 H 2.349953 0.056183 3.230506 0
M  V30 71 H 0.769337 -1.921133 1.686368 0
M  V30 72 H -1.004875 -0.702970 4.098151 0
M  V30 73 H -2.030495 -1.927024 5.995048 0
M  V30 74 H -1.100869 -4.097781 6.743776 0
M  V30 75 H 0.875146 -5.082062 5.601102 0
M  V30 76 H 1.876528 -4.590882 2.661292 0
M  V30 77 H 3.035313 -4.260003 3.974079 0
M  V30 78 H 3.237730 -1.988137 3.500092 0
M  V30 79 H 3.300547 -5.108019 1.041536 0
M  V30 80 H 2.424288 -6.080361 -1.040666 0
M  V30 81 H 1.816322 -2.145246 -2.647487 0
M  V30 82 H 3.171250 -0.543532 0.444142 0
M  V30 83 H 2.698929 1.526176 0.163362 0
M  V30 84 H 1.812443 2.562766 -2.211432 0
M  V30 85 H 2.630904 3.466858 -0.923875 0
M  V30 86 H 3.808555 3.791980 -3.086358 0
M  V30 87 H 4.852414 2.921530 -1.946160 0
M  V30 88 H 4.044119 2.043307 -3.249828 0
M  V30 89 H -2.416542 1.664631 2.988818 0
M  V30 90 H -3.357171 3.782331 3.862723 0
M  V30 91 H -2.527274 7.057679 0.898308 0
M  V30 92 H -1.423001 7.330372 -1.259174 0
M  V30 93 H 0.364417 7.227498 -2.800743 0
M  V30 94 H -1.198506 6.793778 -3.597445 0
M  V30 95 H 0.344323 6.277932 -4.292514 0
M  V30 96 H -0.473726 3.161988 -1.305237 0
M  V30 END ATOM
M  V30 BEGIN BOND
M  V30 1 2 1 2
M  V30 2 1 2 3
M  V30 3 1 3 4
M  V30 4 1 4 5
M  V30 5 1 5 6
M  V30 6 1 6 7
M  V30 7 1 7 8
M  V30 8 1 8 9
M  V30 9 1 9 10
M  V30 10 1 10 11
M  V30 11 1 11 12
M  V30 12 1 12 13
M  V30 13 2 13 14
M  V30 14 1 13 15
M  V30 15 1 15 16
M  V30 16 1 16 17
M  V30 17 2 17 18
M  V30 18 1 18 19
M  V30 19 2 19 20
M  V30 20 1 20 21
M  V30 21 2 21 22
M  V30 22 1 22 23
M  V30 23 1 23 24
M  V30 24 1 24 25
M  V30 25 1 25 26
M  V30 26 2 26 27
M  V30 27 1 27 28
M  V30 28 2 28 29
M  V30 29 1 29 30
M  V30 30 1 30 31
M  V30 31 1 30 32
M  V30 32 1 30 33
M  V30 33 1 29 34
M  V30 34 2 34 35
M  V30 35 1 35 36
M  V30 36 1 36 37
M  V30 37 2 37 38
M  V30 38 1 37 39
M  V30 39 1 39 40
M  V30 40 1 40 41
M  V30 41 1 11 42
M  V30 42 2 42 43
M  V30 43 1 43 44
M  V30 44 2 44 45
M  V30 45 1 45 46
M  V30 46 2 46 47
M  V30 47 1 47 48
M  V30 48 2 48 49
M  V30 49 1 49 50
M  V30 50 1 50 51
M  V30 51 1 49 52
M  V30 52 2 52 53
M  V30 53 1 8 3
M  V30 54 1 24 16
M  V30 55 1 35 26
M  V30 56 1 53 42
M  V30 57 1 10 5
M  V30 58 1 22 17
M  V30 59 1 53 46
M  V30 60 1 1 54
M  V30 61 1 1 55
M  V30 62 1 2 56
M  V30 63 1 3 57 CFG=3
M  V30 64 1 4 58
M  V30 65 1 4 59
M  V30 66 1 6 60
M  V30 67 1 6 61
M  V30 68 1 7 62
M  V30 69 1 7 63
M  V30 70 1 8 64 CFG=3
M  V30 71 1 9 65
M  V30 72 1 9 66
M  V30 73 1 10 67 CFG=1
M  V30 74 1 11 68 CFG=3
M  V30 75 1 12 69
M  V30 76 1 15 70
M  V30 77 1 16 71 CFG=3
M  V30 78 1 18 72
M  V30 79 1 19 73
M  V30 80 1 20 74
M  V30 81 1 21 75
M  V30 82 1 23 76
M  V30 83 1 23 77
M  V30 84 1 24 78 CFG=1
M  V30 85 1 27 79
M  V30 86 1 28 80
M  V30 87 1 34 81
M  V30 88 1 36 82
M  V30 89 1 39 83
M  V30 90 1 40 84
M  V30 91 1 40 85
M  V30 92 1 41 86
M  V30 93 1 41 87
M  V30 94 1 41 88
M  V30 95 1 43 89
M  V30 96 1 44 90
M  V30 97 1 47 91
M  V30 98 1 48 92
M  V30 99 1 51 93
M  V30 100 1 51 94
M  V30 101 1 51 95
M  V30 102 1 52 96
M  V30 END BOND
M  V30 END CTAB
M  END
>  <catalyst_id>  (1) 
APGXEVAHQCHTAY_QYLKBAPYSA_NONE

>  <source_smiles>  (1) 
C=C[C@H]1CN2CC[C@H]1C[C@@H]2[C@H](NC(=S)N[C@@H]1c2ccccc2C[C@H]1Oc1ccc(C(F)(F)F)cc1NC(=O)NCC)c1ccnc2ccc(OC)cc12

>  <axial_configuration>  (1) 
none

>  <inchikey>  (1) 
APGXEVAHQCHTAY-QYLKBAPYSA-N

>  <build_source>  (1) 
smiles

>  <rdkit_version>  (1) 
2025.09.6

>  <random_seed>  (1) 
42

>  <generated_at>  (1) 
2026-05-19T12:32:50

$$$$
