catalyst130
     RDKit          3D

  0  0  0  0  0  0  0  0  0  0999 V3000
M  V30 BEGIN CTAB
M  V30 COUNTS 72 77 0 0 0
M  V30 BEGIN ATOM
M  V30 1 C -1.750810 -0.932544 -4.684497 0
M  V30 2 C -0.724429 -0.953263 -3.561944 0
M  V30 3 C -1.112820 -1.870282 -2.388210 0 CFG=1
M  V30 4 C 0.005880 -1.880360 -1.317140 0
M  V30 5 N -0.538287 -1.787235 0.059142 0
M  V30 6 C -1.549200 -2.855965 0.234990 0
M  V30 7 C -2.756271 -2.648873 -0.691795 0
M  V30 8 C -2.448674 -1.516968 -1.689816 0 CFG=1
M  V30 9 C -2.266505 -0.222599 -0.879081 0
M  V30 10 C -1.223933 -0.455072 0.239806 0 CFG=2
M  V30 11 C -0.212047 0.751323 0.395505 0 CFG=2
M  V30 12 N 0.929481 0.289438 1.213068 0
M  V30 13 C 2.114824 0.863861 1.255920 0
M  V30 14 C 3.364393 0.579747 1.756887 0
M  V30 15 N 4.020390 -0.356056 2.412173 0
M  V30 16 C 3.713230 -1.725815 2.563929 0
M  V30 17 C 4.194644 -2.405981 3.691172 0
M  V30 18 C 3.867431 -3.747154 3.921317 0
M  V30 19 C 3.034954 -4.439637 3.032376 0
M  V30 20 C 2.690621 -5.889483 3.266048 0
M  V30 21 F 3.576237 -6.734543 2.670094 0
M  V30 22 F 1.463355 -6.232540 2.783021 0
M  V30 23 F 2.677497 -6.230889 4.585127 0
M  V30 24 C 2.556951 -3.766448 1.901337 0
M  V30 25 C 2.890297 -2.426354 1.676554 0
M  V30 26 C 3.883778 1.906337 1.349199 0
M  V30 27 O 4.903947 2.542496 1.443963 0
M  V30 28 C 2.577286 2.163945 0.703314 0
M  V30 29 O 2.173363 3.061128 0.005859 0
M  V30 30 C -0.887155 1.950750 1.056917 0
M  V30 31 C -1.145705 1.896578 2.436977 0
M  V30 32 C -1.792062 2.952107 3.043333 0
M  V30 33 N -2.207760 4.047325 2.383668 0
M  V30 34 C -1.964094 4.123435 1.066927 0
M  V30 35 C -2.397316 5.263084 0.405425 0
M  V30 36 C -2.202983 5.450271 -0.965961 0
M  V30 37 C -1.550391 4.474961 -1.703157 0
M  V30 38 O -1.291556 4.514923 -3.044678 0
M  V30 39 C -1.618188 5.720867 -3.724654 0
M  V30 40 C -1.105655 3.319826 -1.053390 0
M  V30 41 C -1.302961 3.107838 0.335816 0
M  V30 42 H -2.680253 -0.449853 -4.369277 0
M  V30 43 H -1.982133 -1.946222 -5.026170 0
M  V30 44 H -1.360935 -0.368397 -5.537984 0
M  V30 45 H 0.229283 -1.303642 -3.976914 0
M  V30 46 H -0.550238 0.072256 -3.217360 0
M  V30 47 H -1.206293 -2.889318 -2.790639 0
M  V30 48 H 0.584412 -2.808912 -1.409386 0
M  V30 49 H 0.734502 -1.078574 -1.484119 0
M  V30 50 H -1.089367 -3.834292 0.045750 0
M  V30 51 H -1.881044 -2.886645 1.280099 0
M  V30 52 H -2.977139 -3.579113 -1.228286 0
M  V30 53 H -3.645529 -2.395526 -0.101985 0
M  V30 54 H -3.272808 -1.417690 -2.402013 0
M  V30 55 H -1.975879 0.590883 -1.548291 0
M  V30 56 H -3.223371 0.067322 -0.427277 0
M  V30 57 H -1.768872 -0.530362 1.192405 0
M  V30 58 H 0.185318 1.003042 -0.591405 0
M  V30 59 H 0.817245 -0.700433 1.454706 0
M  V30 60 H 4.939735 -0.140397 2.801303 0
M  V30 61 H 4.820967 -1.889597 4.415415 0
M  V30 62 H 4.258841 -4.245382 4.807303 0
M  V30 63 H 1.917729 -4.279075 1.183548 0
M  V30 64 H 2.520267 -1.950957 0.772598 0
M  V30 65 H -0.841896 1.041603 3.033871 0
M  V30 66 H -2.002845 2.943574 4.108702 0
M  V30 67 H -2.905632 6.035985 0.978387 0
M  V30 68 H -2.572309 6.365786 -1.414402 0
M  V30 69 H -2.699386 5.893642 -3.720300 0
M  V30 70 H -1.079092 6.574324 -3.300016 0
M  V30 71 H -1.302741 5.612709 -4.766868 0
M  V30 72 H -0.580293 2.591081 -1.663060 0
M  V30 END ATOM
M  V30 BEGIN BOND
M  V30 1 1 1 2
M  V30 2 1 2 3
M  V30 3 1 3 4
M  V30 4 1 4 5
M  V30 5 1 5 6
M  V30 6 1 6 7
M  V30 7 1 7 8
M  V30 8 1 8 9
M  V30 9 1 9 10
M  V30 10 1 10 11
M  V30 11 1 11 12
M  V30 12 1 12 13
M  V30 13 2 13 14
M  V30 14 1 14 15
M  V30 15 1 15 16
M  V30 16 2 16 17
M  V30 17 1 17 18
M  V30 18 2 18 19
M  V30 19 1 19 20
M  V30 20 1 20 21
M  V30 21 1 20 22
M  V30 22 1 20 23
M  V30 23 1 19 24
M  V30 24 2 24 25
M  V30 25 1 14 26
M  V30 26 2 26 27
M  V30 27 1 26 28
M  V30 28 2 28 29
M  V30 29 1 11 30
M  V30 30 2 30 31
M  V30 31 1 31 32
M  V30 32 2 32 33
M  V30 33 1 33 34
M  V30 34 2 34 35
M  V30 35 1 35 36
M  V30 36 2 36 37
M  V30 37 1 37 38
M  V30 38 1 38 39
M  V30 39 1 37 40
M  V30 40 2 40 41
M  V30 41 1 8 3
M  V30 42 1 28 13
M  V30 43 1 41 30
M  V30 44 1 10 5
M  V30 45 1 25 16
M  V30 46 1 41 34
M  V30 47 1 1 42
M  V30 48 1 1 43
M  V30 49 1 1 44
M  V30 50 1 2 45
M  V30 51 1 2 46
M  V30 52 1 3 47 CFG=3
M  V30 53 1 4 48
M  V30 54 1 4 49
M  V30 55 1 6 50
M  V30 56 1 6 51
M  V30 57 1 7 52
M  V30 58 1 7 53
M  V30 59 1 8 54 CFG=3
M  V30 60 1 9 55
M  V30 61 1 9 56
M  V30 62 1 10 57 CFG=1
M  V30 63 1 11 58 CFG=3
M  V30 64 1 12 59
M  V30 65 1 15 60
M  V30 66 1 17 61
M  V30 67 1 18 62
M  V30 68 1 24 63
M  V30 69 1 25 64
M  V30 70 1 31 65
M  V30 71 1 32 66
M  V30 72 1 35 67
M  V30 73 1 36 68
M  V30 74 1 39 69
M  V30 75 1 39 70
M  V30 76 1 39 71
M  V30 77 1 40 72
M  V30 END BOND
M  V30 END CTAB
M  END
>  <catalyst_id>  (1) 
JFWNMMJUYJKPCU_PWAJYCBGSA_NONE

>  <source_smiles>  (1) 
CC[C@H]1CN2CC[C@H]1C[C@@H]2[C@H](Nc1c(Nc2ccc(C(F)(F)F)cc2)c(=O)c1=O)c1ccnc2ccc(OC)cc12

>  <axial_configuration>  (1) 
none

>  <inchikey>  (1) 
JFWNMMJUYJKPCU-PWAJYCBGSA-N

>  <build_source>  (1) 
smiles

>  <rdkit_version>  (1) 
2025.09.6

>  <random_seed>  (1) 
42

>  <generated_at>  (1) 
2026-05-19T12:39:46

$$$$
