catalyst33
     RDKit          3D

  0  0  0  0  0  0  0  0  0  0999 V3000
M  V30 BEGIN CTAB
M  V30 COUNTS 60 64 0 0 0
M  V30 BEGIN ATOM
M  V30 1 C 2.068542 -3.509255 0.203326 0
M  V30 2 C 1.089222 -3.286593 -0.682933 0
M  V30 3 C 1.042402 -2.241985 -1.776694 0 CFG=1
M  V30 4 C -0.301418 -1.458383 -1.752293 0
M  V30 5 N -0.126619 -0.021884 -2.095926 0
M  V30 6 C 0.643103 0.050366 -3.362646 0
M  V30 7 C 2.079833 -0.465218 -3.173413 0
M  V30 8 C 2.186272 -1.196094 -1.819735 0 CFG=1
M  V30 9 C 1.951152 -0.150666 -0.709060 0
M  V30 10 C 0.676616 0.669288 -1.030831 0 CFG=2
M  V30 11 C -0.167848 1.078944 0.224886 0 CFG=1
M  V30 12 O -0.380355 -0.050084 1.100484 0
M  V30 13 C -1.563753 -0.058397 1.776152 0
M  V30 14 O -2.440888 0.791598 1.686132 0
M  V30 15 C -1.662415 -1.272986 2.667334 0
M  V30 16 C -2.100432 -2.525882 1.951051 0
M  V30 17 C -1.393717 -3.723315 2.129654 0
M  V30 18 C -1.809534 -4.894688 1.493746 0
M  V30 19 C -2.937354 -4.882955 0.676258 0
M  V30 20 C -3.655963 -3.702520 0.501387 0
M  V30 21 C -3.245472 -2.531692 1.140971 0
M  V30 22 C 0.523930 2.209781 0.990941 0
M  V30 23 C 1.401341 1.893939 2.038592 0
M  V30 24 C 2.039425 2.916791 2.708900 0
M  V30 25 N 1.878593 4.218738 2.412083 0
M  V30 26 C 1.049271 4.543080 1.409079 0
M  V30 27 C 0.900721 5.890657 1.110588 0
M  V30 28 C 0.070097 6.331006 0.080763 0
M  V30 29 C -0.628217 5.401428 -0.665729 0
M  V30 30 O -1.433327 5.860624 -1.664206 0
M  V30 31 C -0.503397 4.041806 -0.396840 0
M  V30 32 C 0.337021 3.580783 0.649423 0
M  V30 33 H 2.980058 -2.923137 0.231450 0
M  V30 34 H 1.976335 -4.309678 0.931722 0
M  V30 35 H 0.219830 -3.943985 -0.643803 0
M  V30 36 H 1.080165 -2.808359 -2.719036 0
M  V30 37 H -0.814313 -1.555338 -0.791254 0
M  V30 38 H -0.989131 -1.910967 -2.479465 0
M  V30 39 H 0.130725 -0.528060 -4.142017 0
M  V30 40 H 0.662714 1.083629 -3.730612 0
M  V30 41 H 2.789044 0.370955 -3.202176 0
M  V30 42 H 2.342341 -1.142027 -3.994869 0
M  V30 43 H 3.173621 -1.658967 -1.722477 0
M  V30 44 H 2.811495 0.528533 -0.659776 0
M  V30 45 H 1.885549 -0.645548 0.264016 0
M  V30 46 H 1.004978 1.617239 -1.482716 0
M  V30 47 H -1.142768 1.425735 -0.134704 0
M  V30 48 H -2.373510 -1.052420 3.472802 0
M  V30 49 H -0.690363 -1.411948 3.156818 0
M  V30 50 H -0.511144 -3.754190 2.764834 0
M  V30 51 H -1.252871 -5.817185 1.637245 0
M  V30 52 H -3.261337 -5.794964 0.181845 0
M  V30 53 H -4.542418 -3.693485 -0.127857 0
M  V30 54 H -3.831143 -1.623971 1.001880 0
M  V30 55 H 1.593061 0.867126 2.332811 0
M  V30 56 H 2.722722 2.710472 3.527756 0
M  V30 57 H 1.450234 6.622195 1.698705 0
M  V30 58 H -0.027586 7.391790 -0.129687 0
M  V30 59 H -1.911316 5.110347 -2.055192 0
M  V30 60 H -1.061804 3.339978 -1.007685 0
M  V30 END ATOM
M  V30 BEGIN BOND
M  V30 1 2 1 2
M  V30 2 1 2 3
M  V30 3 1 3 4
M  V30 4 1 4 5
M  V30 5 1 5 6
M  V30 6 1 6 7
M  V30 7 1 7 8
M  V30 8 1 8 9
M  V30 9 1 9 10
M  V30 10 1 10 11
M  V30 11 1 11 12
M  V30 12 1 12 13
M  V30 13 2 13 14
M  V30 14 1 13 15
M  V30 15 1 15 16
M  V30 16 2 16 17
M  V30 17 1 17 18
M  V30 18 2 18 19
M  V30 19 1 19 20
M  V30 20 2 20 21
M  V30 21 1 11 22
M  V30 22 2 22 23
M  V30 23 1 23 24
M  V30 24 2 24 25
M  V30 25 1 25 26
M  V30 26 2 26 27
M  V30 27 1 27 28
M  V30 28 2 28 29
M  V30 29 1 29 30
M  V30 30 1 29 31
M  V30 31 2 31 32
M  V30 32 1 8 3
M  V30 33 1 21 16
M  V30 34 1 32 22
M  V30 35 1 10 5
M  V30 36 1 32 26
M  V30 37 1 1 33
M  V30 38 1 1 34
M  V30 39 1 2 35
M  V30 40 1 3 36 CFG=3
M  V30 41 1 4 37
M  V30 42 1 4 38
M  V30 43 1 6 39
M  V30 44 1 6 40
M  V30 45 1 7 41
M  V30 46 1 7 42
M  V30 47 1 8 43 CFG=1
M  V30 48 1 9 44
M  V30 49 1 9 45
M  V30 50 1 10 46 CFG=3
M  V30 51 1 11 47 CFG=3
M  V30 52 1 15 48
M  V30 53 1 15 49
M  V30 54 1 17 50
M  V30 55 1 18 51
M  V30 56 1 19 52
M  V30 57 1 20 53
M  V30 58 1 21 54
M  V30 59 1 23 55
M  V30 60 1 24 56
M  V30 61 1 27 57
M  V30 62 1 28 58
M  V30 63 1 30 59
M  V30 64 1 31 60
M  V30 END BOND
M  V30 END CTAB
M  END
>  <catalyst_id>  (1) 
CRSQMANJWFIXCF_ALYLFKNPSA_NONE

>  <source_smiles>  (1) 
C=C[C@H]1CN2CC[C@H]1C[C@@H]2[C@@H](OC(=O)Cc1ccccc1)c1ccnc2ccc(O)cc12

>  <axial_configuration>  (1) 
none

>  <inchikey>  (1) 
CRSQMANJWFIXCF-ALYLFKNPSA-N

>  <build_source>  (1) 
smiles

>  <rdkit_version>  (1) 
2025.09.6

>  <random_seed>  (1) 
42

>  <generated_at>  (1) 
2026-05-19T12:30:17

$$$$
