catalyst89
     RDKit          3D

  0  0  0  0  0  0  0  0  0  0999 V3000
M  V30 BEGIN CTAB
M  V30 COUNTS 44 46 0 0 0
M  V30 BEGIN ATOM
M  V30 1 C -4.156869 1.505874 -0.720510 0
M  V30 2 O -2.872621 1.069225 -1.155126 0
M  V30 3 C -2.620242 -0.261773 -0.918289 0
M  V30 4 C -3.571119 -1.246754 -1.216365 0
M  V30 5 C -3.256122 -2.597339 -1.079804 0
M  V30 6 C -1.979180 -2.977102 -0.678508 0
M  V30 7 C -1.009854 -2.004862 -0.388771 0
M  V30 8 C -1.327539 -0.621338 -0.477850 0
M  V30 9 C -0.272240 0.392300 -0.166967 0
M  V30 10 C -0.478337 1.400641 0.807059 0
M  V30 11 O -1.672770 1.370966 1.484525 0
M  V30 12 C -1.952080 2.432855 2.385777 0
M  V30 13 C 0.533482 2.324976 1.071069 0
M  V30 14 C 1.762023 2.235074 0.417863 0
M  V30 15 C 2.018304 1.212485 -0.495459 0
M  V30 16 N 3.323593 1.136223 -1.072468 0
M  V30 17 S 4.656884 0.786646 -0.070777 0
M  V30 18 O 4.690071 1.772604 0.996205 0
M  V30 19 O 5.774460 0.722172 -1.000988 0
M  V30 20 C 4.333243 -0.918096 0.620396 0
M  V30 21 F 3.179936 -0.982831 1.341001 0
M  V30 22 F 5.336347 -1.322380 1.452576 0
M  V30 23 F 4.252645 -1.850551 -0.369716 0
M  V30 24 C 1.004567 0.290386 -0.810768 0
M  V30 25 C 1.210674 -0.858988 -1.777793 0
M  V30 26 N 1.370777 -2.166376 -1.125471 0
M  V30 27 C 0.402529 -2.427489 -0.047750 0
M  V30 28 H -4.914955 1.280480 -1.476830 0
M  V30 29 H -4.116695 2.593048 -0.602569 0
M  V30 30 H -4.433345 1.074325 0.248197 0
M  V30 31 H -4.554469 -0.979189 -1.589712 0
M  V30 32 H -3.999595 -3.354312 -1.316320 0
M  V30 33 H -1.736975 -4.035191 -0.608994 0
M  V30 34 H -1.262917 2.418755 3.236260 0
M  V30 35 H -1.935736 3.401611 1.875550 0
M  V30 36 H -2.963168 2.281362 2.775983 0
M  V30 37 H 0.411085 3.121163 1.797761 0
M  V30 38 H 2.524861 2.978011 0.643761 0
M  V30 39 H 3.425280 0.713194 -1.993219 0
M  V30 40 H 2.092126 -0.697998 -2.404030 0
M  V30 41 H 0.384010 -0.884964 -2.500851 0
M  V30 42 H 1.246300 -2.884070 -1.838880 0
M  V30 43 H 0.724283 -1.942158 0.882318 0
M  V30 44 H 0.429348 -3.500612 0.178776 0
M  V30 END ATOM
M  V30 BEGIN BOND
M  V30 1 1 1 2
M  V30 2 1 2 3
M  V30 3 2 3 4
M  V30 4 1 4 5
M  V30 5 2 5 6
M  V30 6 1 6 7
M  V30 7 2 7 8
M  V30 8 1 8 9
M  V30 9 2 9 10
M  V30 10 1 10 11
M  V30 11 1 11 12
M  V30 12 1 10 13
M  V30 13 2 13 14
M  V30 14 1 14 15
M  V30 15 1 15 16
M  V30 16 1 16 17
M  V30 17 2 17 18
M  V30 18 2 17 19
M  V30 19 1 17 20
M  V30 20 1 20 21
M  V30 21 1 20 22
M  V30 22 1 20 23
M  V30 23 2 15 24
M  V30 24 1 24 25
M  V30 25 1 25 26
M  V30 26 1 26 27
M  V30 27 1 8 3
M  V30 28 1 24 9
M  V30 29 1 27 7
M  V30 30 1 1 28
M  V30 31 1 1 29
M  V30 32 1 1 30
M  V30 33 1 4 31
M  V30 34 1 5 32
M  V30 35 1 6 33
M  V30 36 1 12 34
M  V30 37 1 12 35
M  V30 38 1 12 36
M  V30 39 1 13 37
M  V30 40 1 14 38
M  V30 41 1 16 39
M  V30 42 1 25 40
M  V30 43 1 25 41
M  V30 44 1 26 42
M  V30 45 1 27 43
M  V30 46 1 27 44
M  V30 END BOND
M  V30 END CTAB
M  END
>  <catalyst_id>  (1) 
HCUPRXMELOVZHM_UHFFFAOYSA_S

>  <source_smiles>  (1) 
COc1cccc2c1-c1c(OC)ccc(NS(=O)(=O)C(F)(F)F)c1CNC2

>  <axial_configuration>  (1) 
S

>  <inchikey>  (1) 
HCUPRXMELOVZHM-UHFFFAOYSA-N

>  <build_source>  (1) 
smiles+axial_bridged

>  <final_biaryl_angle_deg>  (1) 
-124.97

>  <n_valid_conformers>  (1) 
11

>  <rdkit_version>  (1) 
2025.09.6

>  <random_seed>  (1) 
42

>  <generated_at>  (1) 
2026-05-19T12:33:35

$$$$
