catalyst348
     RDKit          3D

  0  0  0  0  0  0  0  0  0  0999 V3000
M  V30 BEGIN CTAB
M  V30 COUNTS 80 82 0 0 0
M  V30 BEGIN ATOM
M  V30 1 C 6.971742 -3.722753 -2.685932 0
M  V30 2 C 5.494757 -3.733323 -2.437265 0
M  V30 3 O 4.773372 -4.706778 -2.596539 0
M  V30 4 O 5.088360 -2.511069 -1.997027 0
M  V30 5 C 3.684088 -2.421620 -1.728273 0
M  V30 6 C 3.316949 -1.024988 -1.199824 0 CFG=1
M  V30 7 O 1.888867 -0.956170 -1.139604 0
M  V30 8 C 1.432867 0.340254 -0.776189 0 CFG=1
M  V30 9 N -0.003637 0.338791 -0.972478 0
M  V30 10 C -0.659189 0.460129 -2.158322 0
M  V30 11 S 0.041193 0.710512 -3.653753 0
M  V30 12 N -2.019977 0.405493 -2.111630 0
M  V30 13 C -2.916657 0.585810 -0.952350 0 CFG=1
M  V30 14 C -3.013074 2.073117 -0.567917 0
M  V30 15 C -3.798243 2.895891 -1.587754 0
M  V30 16 C -5.164088 2.288126 -1.888420 0
M  V30 17 C -5.043689 0.820469 -2.293185 0
M  V30 18 C -4.341117 -0.037754 -1.206921 0 CFG=2
M  V30 19 N -5.155602 -0.149270 0.042878 0
M  V30 20 C -6.486176 -0.736257 -0.154871 0
M  V30 21 C -7.354185 -0.551143 1.098752 0
M  V30 22 C -6.587811 -0.745839 2.404805 0
M  V30 23 C -5.323561 -1.549933 2.164306 0
M  V30 24 C -4.431435 -0.873320 1.114143 0
M  V30 25 C 1.832489 0.605874 0.685381 0 CFG=2
M  V30 26 O 1.399245 1.917618 1.114075 0
M  V30 27 C 0.146621 1.973271 1.644180 0
M  V30 28 C -0.184853 3.379098 2.038451 0
M  V30 29 O -0.607596 1.018842 1.777028 0
M  V30 30 C 3.363243 0.548540 0.799466 0 CFG=1
M  V30 31 O 3.671393 0.598897 2.218752 0
M  V30 32 C 4.777464 1.293837 2.592895 0
M  V30 33 C 4.943522 1.231293 4.079883 0
M  V30 34 O 5.537340 1.879791 1.835428 0
M  V30 35 C 3.936359 -0.748198 0.186788 0 CFG=2
M  V30 36 O 5.363624 -0.598969 0.017214 0
M  V30 37 C 6.164215 -1.132292 0.976570 0
M  V30 38 C 7.602264 -0.883794 0.640646 0
M  V30 39 O 5.778043 -1.718915 1.976990 0
M  V30 40 H 7.271664 -4.677385 -3.127515 0
M  V30 41 H 7.225159 -2.924318 -3.388064 0
M  V30 42 H 7.504295 -3.588155 -1.741403 0
M  V30 43 H 3.390024 -3.185212 -0.996695 0
M  V30 44 H 3.126519 -2.613637 -2.653965 0
M  V30 45 H 3.690231 -0.285765 -1.922035 0
M  V30 46 H 1.866130 1.103991 -1.433540 0
M  V30 47 H -0.525356 -0.066880 -0.208342 0
M  V30 48 H -2.425434 0.577265 -3.024408 0
M  V30 49 H -2.441051 0.055294 -0.126717 0
M  V30 50 H -2.012607 2.506868 -0.459535 0
M  V30 51 H -3.500181 2.164242 0.410712 0
M  V30 52 H -3.222222 2.971623 -2.518183 0
M  V30 53 H -3.925267 3.918461 -1.214352 0
M  V30 54 H -5.813831 2.384434 -1.010588 0
M  V30 55 H -5.641818 2.852519 -2.697473 0
M  V30 56 H -6.029886 0.426652 -2.553819 0
M  V30 57 H -4.478914 0.759006 -3.231501 0
M  V30 58 H -4.203906 -1.047910 -1.617528 0
M  V30 59 H -7.038530 -0.261794 -0.969197 0
M  V30 60 H -6.403524 -1.800546 -0.411254 0
M  V30 61 H -7.802533 0.450324 1.100052 0
M  V30 62 H -8.187408 -1.262983 1.052612 0
M  V30 63 H -6.320553 0.233973 2.820275 0
M  V30 64 H -7.225551 -1.238237 3.147152 0
M  V30 65 H -5.594357 -2.557800 1.824546 0
M  V30 66 H -4.766850 -1.670291 3.100527 0
M  V30 67 H -3.789682 -0.152907 1.635194 0
M  V30 68 H -3.781350 -1.652390 0.695339 0
M  V30 69 H 1.416935 -0.163790 1.351267 0
M  V30 70 H -1.194445 3.408593 2.458206 0
M  V30 71 H 0.519512 3.726955 2.798072 0
M  V30 72 H -0.154923 4.026869 1.158758 0
M  V30 73 H 3.791752 1.429281 0.302951 0
M  V30 74 H 4.069189 1.667858 4.569120 0
M  V30 75 H 5.082957 0.193850 4.393753 0
M  V30 76 H 5.827726 1.805930 4.370090 0
M  V30 77 H 3.704842 -1.588647 0.854479 0
M  V30 78 H 7.805720 0.189665 0.654943 0
M  V30 79 H 8.237638 -1.372389 1.384785 0
M  V30 80 H 7.832757 -1.305884 -0.340721 0
M  V30 END ATOM
M  V30 BEGIN BOND
M  V30 1 1 1 2
M  V30 2 2 2 3
M  V30 3 1 2 4
M  V30 4 1 4 5
M  V30 5 1 5 6
M  V30 6 1 6 7
M  V30 7 1 7 8
M  V30 8 1 8 9
M  V30 9 1 9 10
M  V30 10 2 10 11
M  V30 11 1 10 12
M  V30 12 1 12 13
M  V30 13 1 13 14
M  V30 14 1 14 15
M  V30 15 1 15 16
M  V30 16 1 16 17
M  V30 17 1 17 18
M  V30 18 1 18 19
M  V30 19 1 19 20
M  V30 20 1 20 21
M  V30 21 1 21 22
M  V30 22 1 22 23
M  V30 23 1 23 24
M  V30 24 1 8 25
M  V30 25 1 25 26
M  V30 26 1 26 27
M  V30 27 1 27 28
M  V30 28 2 27 29
M  V30 29 1 25 30
M  V30 30 1 30 31
M  V30 31 1 31 32
M  V30 32 1 32 33
M  V30 33 2 32 34
M  V30 34 1 30 35
M  V30 35 1 35 36
M  V30 36 1 36 37
M  V30 37 1 37 38
M  V30 38 2 37 39
M  V30 39 1 35 6
M  V30 40 1 18 13
M  V30 41 1 24 19
M  V30 42 1 1 40
M  V30 43 1 1 41
M  V30 44 1 1 42
M  V30 45 1 5 43
M  V30 46 1 5 44
M  V30 47 1 6 45 CFG=3
M  V30 48 1 8 46 CFG=3
M  V30 49 1 9 47
M  V30 50 1 12 48
M  V30 51 1 13 49 CFG=1
M  V30 52 1 14 50
M  V30 53 1 14 51
M  V30 54 1 15 52
M  V30 55 1 15 53
M  V30 56 1 16 54
M  V30 57 1 16 55
M  V30 58 1 17 56
M  V30 59 1 17 57
M  V30 60 1 18 58 CFG=3
M  V30 61 1 20 59
M  V30 62 1 20 60
M  V30 63 1 21 61
M  V30 64 1 21 62
M  V30 65 1 22 63
M  V30 66 1 22 64
M  V30 67 1 23 65
M  V30 68 1 23 66
M  V30 69 1 24 67
M  V30 70 1 24 68
M  V30 71 1 25 69 CFG=1
M  V30 72 1 28 70
M  V30 73 1 28 71
M  V30 74 1 28 72
M  V30 75 1 30 73 CFG=3
M  V30 76 1 33 74
M  V30 77 1 33 75
M  V30 78 1 33 76
M  V30 79 1 35 77 CFG=1
M  V30 80 1 38 78
M  V30 81 1 38 79
M  V30 82 1 38 80
M  V30 END BOND
M  V30 END CTAB
M  END
>  <catalyst_id>  (1) 
TWUOYHIJSWLMMB_CQYMSPLPSA_NONE

>  <source_smiles>  (1) 
CC(=O)OC[C@H]1O[C@@H](NC(=S)N[C@H]2CCCC[C@@H]2N2CCCCC2)[C@H](OC(C)=O)[C@@H](OC(C)=O)[C@@H]1OC(C)=O

>  <axial_configuration>  (1) 
none

>  <inchikey>  (1) 
TWUOYHIJSWLMMB-CQYMSPLPSA-N

>  <build_source>  (1) 
smiles

>  <rdkit_version>  (1) 
2025.09.6

>  <random_seed>  (1) 
42

>  <generated_at>  (1) 
2026-05-19T12:33:16

$$$$
