catalyst63
     RDKit          3D

  0  0  0  0  0  0  0  0  0  0999 V3000
M  V30 BEGIN CTAB
M  V30 COUNTS 48 52 0 0 0
M  V30 BEGIN ATOM
M  V30 1 O 3.602531 -1.570383 -1.213703 0
M  V30 2 S 4.453846 -1.117607 -0.126573 0
M  V30 3 O 5.249865 -2.096518 0.596906 0
M  V30 4 N 3.456456 -0.447387 1.089647 0
M  V30 5 C 2.231514 0.161621 0.677317 0
M  V30 6 C 2.272810 1.522913 0.381423 0
M  V30 7 C 1.153619 2.190449 -0.127516 0
M  V30 8 C 1.250257 3.552065 -0.463438 0
M  V30 9 C 0.169566 4.235271 -1.015578 0
M  V30 10 C -1.019328 3.561374 -1.248281 0
M  V30 11 C -1.129115 2.209999 -0.912160 0
M  V30 12 C -0.061085 1.489354 -0.320722 0
M  V30 13 C -0.133791 0.109574 0.059319 0
M  V30 14 C 1.044599 -0.563504 0.507691 0
M  V30 15 C 0.981926 -2.068824 0.691440 0
M  V30 16 N 0.918863 -2.812094 -0.575110 0
M  V30 17 C -0.058460 -2.288429 -1.543553 0
M  V30 18 C -1.364169 -1.842084 -0.917026 0
M  V30 19 C -2.518788 -2.606498 -1.105018 0
M  V30 20 C -3.701803 -2.258957 -0.460810 0
M  V30 21 C -3.749966 -1.172338 0.420661 0
M  V30 22 C -4.946270 -0.881207 1.097984 0
M  V30 23 C -5.018107 0.164406 2.015556 0
M  V30 24 C -3.889514 0.927193 2.275085 0
M  V30 25 C -2.695298 0.652471 1.604135 0
M  V30 26 C -2.591161 -0.384330 0.642803 0
M  V30 27 C -1.394639 -0.689469 -0.083677 0
M  V30 28 C 5.540036 0.299166 -0.658137 0
M  V30 29 F 6.552083 -0.106128 -1.475332 0
M  V30 30 F 4.845699 1.257110 -1.336409 0
M  V30 31 F 6.118210 0.924242 0.408294 0
M  V30 32 H 3.405842 -1.086162 1.885751 0
M  V30 33 H 3.199180 2.073543 0.532484 0
M  V30 34 H 2.181086 4.094701 -0.308635 0
M  V30 35 H 0.262317 5.286386 -1.275271 0
M  V30 36 H -1.864781 4.078985 -1.694117 0
M  V30 37 H -2.075166 1.716943 -1.128814 0
M  V30 38 H 0.135704 -2.335692 1.337956 0
M  V30 39 H 1.850541 -2.434507 1.248610 0
M  V30 40 H 1.841105 -2.743420 -1.020799 0
M  V30 41 H -0.248211 -3.075154 -2.283596 0
M  V30 42 H 0.373255 -1.457704 -2.117377 0
M  V30 43 H -2.497588 -3.489470 -1.739735 0
M  V30 44 H -4.584235 -2.873667 -0.627133 0
M  V30 45 H -5.837385 -1.480562 0.921974 0
M  V30 46 H -5.950280 0.372218 2.533671 0
M  V30 47 H -3.930421 1.735865 2.999965 0
M  V30 48 H -1.831349 1.266246 1.849853 0
M  V30 END ATOM
M  V30 BEGIN BOND
M  V30 1 2 1 2
M  V30 2 2 2 3
M  V30 3 1 2 4
M  V30 4 1 4 5
M  V30 5 2 5 6
M  V30 6 1 6 7
M  V30 7 2 7 8
M  V30 8 1 8 9
M  V30 9 2 9 10
M  V30 10 1 10 11
M  V30 11 2 11 12
M  V30 12 1 12 13
M  V30 13 2 13 14
M  V30 14 1 14 15
M  V30 15 1 15 16
M  V30 16 1 16 17
M  V30 17 1 17 18
M  V30 18 2 18 19
M  V30 19 1 19 20
M  V30 20 2 20 21
M  V30 21 1 21 22
M  V30 22 2 22 23
M  V30 23 1 23 24
M  V30 24 2 24 25
M  V30 25 1 25 26
M  V30 26 2 26 27
M  V30 27 1 2 28
M  V30 28 1 28 29
M  V30 29 1 28 30
M  V30 30 1 28 31
M  V30 31 1 14 5
M  V30 32 1 27 18
M  V30 33 1 12 7
M  V30 34 1 27 13
M  V30 35 1 26 21
M  V30 36 1 4 32
M  V30 37 1 6 33
M  V30 38 1 8 34
M  V30 39 1 9 35
M  V30 40 1 10 36
M  V30 41 1 11 37
M  V30 42 1 15 38
M  V30 43 1 15 39
M  V30 44 1 16 40
M  V30 45 1 17 41
M  V30 46 1 17 42
M  V30 47 1 19 43
M  V30 48 1 20 44
M  V30 49 1 22 45
M  V30 50 1 23 46
M  V30 51 1 24 47
M  V30 52 1 25 48
M  V30 END BOND
M  V30 END CTAB
M  END
>  <catalyst_id>  (1) 
FUXIMCCGGZIJJQ_UHFFFAOYSA_S

>  <source_smiles>  (1) 
O=S(=O)(Nc1cc2ccccc2c2c1CNCc1ccc3ccccc3c1-2)C(F)(F)F

>  <axial_configuration>  (1) 
S

>  <inchikey>  (1) 
FUXIMCCGGZIJJQ-UHFFFAOYSA-N

>  <build_source>  (1) 
smiles+axial_bridged

>  <final_biaryl_angle_deg>  (1) 
-63.81

>  <n_valid_conformers>  (1) 
7

>  <rdkit_version>  (1) 
2025.09.6

>  <random_seed>  (1) 
42

>  <generated_at>  (1) 
2026-05-19T12:30:13

$$$$
