catalyst283
     RDKit          3D

  0  0  0  0  0  0  0  0  0  0999 V3000
M  V30 BEGIN CTAB
M  V30 COUNTS 52 54 0 0 0
M  V30 BEGIN ATOM
M  V30 1 C -2.922016 1.588850 0.419882 0
M  V30 2 N -2.016959 0.589968 0.986964 0
M  V30 3 C -2.034521 0.663631 2.449044 0
M  V30 4 C -2.256993 -0.795536 0.498225 0 CFG=1
M  V30 5 C -3.691462 -1.332793 0.659475 0
M  V30 6 C -3.781411 -2.797457 0.227059 0
M  V30 7 C -3.260655 -3.012454 -1.190952 0
M  V30 8 C -1.850420 -2.455285 -1.373296 0
M  V30 9 C -1.789841 -0.970149 -0.991561 0 CFG=2
M  V30 10 N -0.417537 -0.449737 -1.117549 0
M  V30 11 C 0.152563 -0.114719 -2.259918 0
M  V30 12 C 1.297030 0.532034 -2.667383 0
M  V30 13 N 2.376213 1.120346 -2.190752 0
M  V30 14 C 2.913608 1.100852 -0.885321 0
M  V30 15 C 2.610556 0.108499 0.052383 0
M  V30 16 C 3.093925 0.164144 1.371012 0
M  V30 17 C 2.733663 -0.932847 2.343562 0
M  V30 18 F 3.317603 -2.120651 2.026930 0
M  V30 19 F 3.108891 -0.661854 3.625031 0
M  V30 20 F 1.393846 -1.172455 2.393395 0
M  V30 21 C 3.913092 1.236968 1.748601 0
M  V30 22 C 4.243812 2.242867 0.829023 0
M  V30 23 C 5.099125 3.415577 1.244252 0
M  V30 24 F 4.359142 4.441556 1.745257 0
M  V30 25 F 6.004589 3.097544 2.210281 0
M  V30 26 F 5.821137 3.939538 0.215205 0
M  V30 27 C 3.727004 2.167731 -0.476022 0
M  V30 28 C 0.915398 0.414780 -4.094651 0
M  V30 29 O 1.348897 0.740304 -5.171950 0
M  V30 30 C -0.305106 -0.300587 -3.662130 0
M  V30 31 O -1.238610 -0.763600 -4.270786 0
M  V30 32 H -2.889416 1.586703 -0.673701 0
M  V30 33 H -3.960068 1.445243 0.738211 0
M  V30 34 H -2.614171 2.594302 0.729651 0
M  V30 35 H -1.315609 -0.040105 2.882976 0
M  V30 36 H -3.023515 0.454173 2.869730 0
M  V30 37 H -1.728356 1.661491 2.783254 0
M  V30 38 H -1.595677 -1.444183 1.093320 0
M  V30 39 H -4.020423 -1.256740 1.701495 0
M  V30 40 H -4.392125 -0.744249 0.055083 0
M  V30 41 H -4.821834 -3.135782 0.291402 0
M  V30 42 H -3.202537 -3.416717 0.923523 0
M  V30 43 H -3.937868 -2.527187 -1.904646 0
M  V30 44 H -3.265816 -4.083075 -1.424855 0
M  V30 45 H -1.145948 -3.030031 -0.757794 0
M  V30 46 H -1.539530 -2.605932 -2.412136 0
M  V30 47 H -2.457765 -0.398517 -1.648957 0
M  V30 48 H -0.196457 0.111604 -0.284674 0
M  V30 49 H 2.980895 1.633119 -2.835317 0
M  V30 50 H 2.007829 -0.749729 -0.239125 0
M  V30 51 H 4.297472 1.292082 2.768541 0
M  V30 52 H 3.956356 2.968466 -1.179208 0
M  V30 END ATOM
M  V30 BEGIN BOND
M  V30 1 1 1 2
M  V30 2 1 2 3
M  V30 3 1 2 4
M  V30 4 1 4 5
M  V30 5 1 5 6
M  V30 6 1 6 7
M  V30 7 1 7 8
M  V30 8 1 8 9
M  V30 9 1 9 10
M  V30 10 1 10 11
M  V30 11 2 11 12
M  V30 12 1 12 13
M  V30 13 1 13 14
M  V30 14 2 14 15
M  V30 15 1 15 16
M  V30 16 1 16 17
M  V30 17 1 17 18
M  V30 18 1 17 19
M  V30 19 1 17 20
M  V30 20 2 16 21
M  V30 21 1 21 22
M  V30 22 1 22 23
M  V30 23 1 23 24
M  V30 24 1 23 25
M  V30 25 1 23 26
M  V30 26 2 22 27
M  V30 27 1 12 28
M  V30 28 2 28 29
M  V30 29 1 28 30
M  V30 30 2 30 31
M  V30 31 1 9 4
M  V30 32 1 30 11
M  V30 33 1 27 14
M  V30 34 1 1 32
M  V30 35 1 1 33
M  V30 36 1 1 34
M  V30 37 1 3 35
M  V30 38 1 3 36
M  V30 39 1 3 37
M  V30 40 1 4 38 CFG=1
M  V30 41 1 5 39
M  V30 42 1 5 40
M  V30 43 1 6 41
M  V30 44 1 6 42
M  V30 45 1 7 43
M  V30 46 1 7 44
M  V30 47 1 8 45
M  V30 48 1 8 46
M  V30 49 1 9 47 CFG=3
M  V30 50 1 10 48
M  V30 51 1 13 49
M  V30 52 1 15 50
M  V30 53 1 21 51
M  V30 54 1 27 52
M  V30 END BOND
M  V30 END CTAB
M  END
>  <catalyst_id>  (1) 
QQXCDABMANNFAA_KBPBESRZSA_NONE

>  <source_smiles>  (1) 
CN(C)[C@H]1CCCC[C@@H]1Nc1c(Nc2cc(C(F)(F)F)cc(C(F)(F)F)c2)c(=O)c1=O

>  <axial_configuration>  (1) 
none

>  <inchikey>  (1) 
QQXCDABMANNFAA-KBPBESRZSA-N

>  <build_source>  (1) 
smiles

>  <rdkit_version>  (1) 
2025.09.6

>  <random_seed>  (1) 
42

>  <generated_at>  (1) 
2026-05-19T12:36:55

$$$$
