catalyst92
     RDKit          3D

  0  0  0  0  0  0  0  0  0  0999 V3000
M  V30 BEGIN CTAB
M  V30 COUNTS 30 31 0 0 0
M  V30 BEGIN ATOM
M  V30 1 O 5.075871 -0.008395 -0.039087 0
M  V30 2 C 4.000197 0.115330 0.525458 0
M  V30 3 O 3.708091 1.263933 1.179758 0
M  V30 4 C 2.866736 -0.915374 0.547495 0 CFG=2
M  V30 5 C 2.251183 -1.058434 -0.837677 0
M  V30 6 C 0.961930 -0.266149 -0.745497 0
M  V30 7 C 0.513472 -0.526385 0.685995 0 CFG=2
M  V30 8 C -0.516841 0.487595 1.207658 0
M  V30 9 C -1.842719 0.404466 0.488933 0
M  V30 10 C -2.737771 -0.636595 0.771394 0
M  V30 11 C -3.957203 -0.723592 0.098360 0
M  V30 12 C -4.293230 0.227586 -0.862908 0
M  V30 13 C -3.410721 1.266758 -1.151572 0
M  V30 14 C -2.190645 1.355698 -0.479446 0
M  V30 15 N 1.767159 -0.495620 1.465588 0
M  V30 16 H 4.522744 1.799899 1.075669 0
M  V30 17 H 3.290593 -1.859395 0.905546 0
M  V30 18 H 2.886178 -0.694735 -1.651479 0
M  V30 19 H 2.016348 -2.112318 -1.031564 0
M  V30 20 H 1.161875 0.799314 -0.914596 0
M  V30 21 H 0.229371 -0.601876 -1.485857 0
M  V30 22 H 0.102743 -1.542214 0.758330 0
M  V30 23 H -0.695417 0.318647 2.278193 0
M  V30 24 H -0.119136 1.508535 1.133049 0
M  V30 25 H -2.489478 -1.385816 1.520278 0
M  V30 26 H -4.645398 -1.533637 0.325138 0
M  V30 27 H -5.243272 0.159609 -1.386134 0
M  V30 28 H -3.673042 2.009172 -1.900719 0
M  V30 29 H -1.513226 2.172402 -0.718014 0
M  V30 30 H 1.973604 0.471586 1.743190 0
M  V30 END ATOM
M  V30 BEGIN BOND
M  V30 1 2 1 2
M  V30 2 1 2 3
M  V30 3 1 2 4
M  V30 4 1 4 5
M  V30 5 1 5 6
M  V30 6 1 6 7
M  V30 7 1 7 8
M  V30 8 1 8 9
M  V30 9 2 9 10
M  V30 10 1 10 11
M  V30 11 2 11 12
M  V30 12 1 12 13
M  V30 13 2 13 14
M  V30 14 1 7 15
M  V30 15 1 15 4
M  V30 16 1 14 9
M  V30 17 1 3 16
M  V30 18 1 4 17 CFG=1
M  V30 19 1 5 18
M  V30 20 1 5 19
M  V30 21 1 6 20
M  V30 22 1 6 21
M  V30 23 1 7 22 CFG=3
M  V30 24 1 8 23
M  V30 25 1 8 24
M  V30 26 1 10 25
M  V30 27 1 11 26
M  V30 28 1 12 27
M  V30 29 1 13 28
M  V30 30 1 14 29
M  V30 31 1 15 30
M  V30 END BOND
M  V30 END CTAB
M  END
>  <catalyst_id>  (1) 
HJULRMMBNXCFEY_MNOVXSKESA_NONE

>  <source_smiles>  (1) 
O=C(O)[C@@H]1CC[C@H](Cc2ccccc2)N1

>  <axial_configuration>  (1) 
none

>  <inchikey>  (1) 
HJULRMMBNXCFEY-MNOVXSKESA-N

>  <build_source>  (1) 
smiles

>  <rdkit_version>  (1) 
2025.09.6

>  <random_seed>  (1) 
42

>  <generated_at>  (1) 
2026-05-19T12:30:03

$$$$
