catalyst20
     RDKit          3D

  0  0  0  0  0  0  0  0  0  0999 V3000
M  V30 BEGIN CTAB
M  V30 COUNTS 73 78 0 0 0
M  V30 BEGIN ATOM
M  V30 1 C -5.226363 -3.515589 -2.356133 0
M  V30 2 C -4.255251 -2.950422 -1.627122 0
M  V30 3 C -3.028542 -3.685915 -1.140617 0 CFG=1
M  V30 4 C -1.714498 -2.993694 -1.591833 0
M  V30 5 N -0.831971 -2.661943 -0.441076 0
M  V30 6 C -0.495738 -3.919059 0.266395 0
M  V30 7 C -1.749550 -4.661499 0.752968 0
M  V30 8 C -3.000696 -3.836501 0.400960 0 CFG=1
M  V30 9 C -2.821524 -2.467141 1.082182 0
M  V30 10 C -1.598482 -1.740964 0.471973 0 CFG=1
M  V30 11 C -0.692778 -1.068124 1.574429 0 CFG=1
M  V30 12 N 0.629447 -0.757426 1.007752 0
M  V30 13 C 1.701515 -0.455630 1.711415 0
M  V30 14 C 3.027339 -0.212130 1.452650 0
M  V30 15 N 3.806876 -0.178752 0.390137 0
M  V30 16 C 5.102702 0.503194 0.358103 0
M  V30 17 C 4.947366 2.003637 0.071798 0
M  V30 18 C 4.433213 2.282365 -1.322724 0
M  V30 19 C 3.058521 2.420447 -1.560222 0
M  V30 20 C 2.583414 2.633446 -2.854517 0
M  V30 21 C 3.475156 2.718597 -3.921625 0
M  V30 22 C 4.843974 2.587189 -3.696063 0
M  V30 23 C 5.321930 2.366743 -2.403342 0
M  V30 24 C 3.310824 0.067523 2.883718 0
M  V30 25 O 4.229856 0.419790 3.582323 0
M  V30 26 C 1.901155 -0.284446 3.174018 0
M  V30 27 O 1.285266 -0.410804 4.204790 0
M  V30 28 C -1.350383 0.168744 2.183340 0
M  V30 29 C -1.790115 0.064178 3.512321 0
M  V30 30 C -2.410786 1.143994 4.103580 0
M  V30 31 N -2.638948 2.308750 3.472101 0
M  V30 32 C -2.215665 2.434736 2.206624 0
M  V30 33 C -2.446749 3.650401 1.580735 0
M  V30 34 C -2.048601 3.900488 0.264886 0
M  V30 35 C -1.395998 2.910323 -0.452446 0
M  V30 36 O -0.951310 3.009983 -1.741006 0
M  V30 37 C -1.167379 4.252786 -2.399593 0
M  V30 38 C -1.153189 1.678946 0.163573 0
M  V30 39 C -1.557221 1.402859 1.496645 0
M  V30 40 H -5.193694 -4.561973 -2.643593 0
M  V30 41 H -6.084729 -2.935185 -2.681712 0
M  V30 42 H -4.345398 -1.895474 -1.373751 0
M  V30 43 H -3.034586 -4.696638 -1.573597 0
M  V30 44 H -1.169980 -3.656014 -2.277956 0
M  V30 45 H -1.910857 -2.082956 -2.172515 0
M  V30 46 H 0.170870 -3.714206 1.112079 0
M  V30 47 H 0.083185 -4.569546 -0.401403 0
M  V30 48 H -1.805826 -5.651739 0.285370 0
M  V30 49 H -1.692790 -4.819170 1.836693 0
M  V30 50 H -3.902970 -4.336938 0.769913 0
M  V30 51 H -2.699607 -2.620118 2.161312 0
M  V30 52 H -3.719980 -1.852521 0.954103 0
M  V30 53 H -1.984061 -0.936551 -0.166926 0
M  V30 54 H -0.528028 -1.816876 2.361602 0
M  V30 55 H 0.723122 -1.172624 0.074119 0
M  V30 56 H 3.388662 -0.252164 -0.539526 0
M  V30 57 H 5.636569 0.358898 1.304236 0
M  V30 58 H 5.717058 0.032548 -0.418701 0
M  V30 59 H 4.281165 2.469998 0.808562 0
M  V30 60 H 5.920914 2.495201 0.193272 0
M  V30 61 H 2.346213 2.352383 -0.739500 0
M  V30 62 H 1.515073 2.727856 -3.028323 0
M  V30 63 H 3.102939 2.885454 -4.928781 0
M  V30 64 H 5.539919 2.653034 -4.528271 0
M  V30 65 H 6.392793 2.260146 -2.245771 0
M  V30 66 H -1.633740 -0.839545 4.094106 0
M  V30 67 H -2.750563 1.099602 5.134321 0
M  V30 68 H -2.954446 4.434781 2.138677 0
M  V30 69 H -2.264214 4.876234 -0.156137 0
M  V30 70 H -2.236563 4.470855 -2.490641 0
M  V30 71 H -0.757951 4.170500 -3.411030 0
M  V30 72 H -0.638170 5.065529 -1.891204 0
M  V30 73 H -0.627142 0.928137 -0.420124 0
M  V30 END ATOM
M  V30 BEGIN BOND
M  V30 1 2 1 2
M  V30 2 1 2 3
M  V30 3 1 3 4
M  V30 4 1 4 5
M  V30 5 1 5 6
M  V30 6 1 6 7
M  V30 7 1 7 8
M  V30 8 1 8 9
M  V30 9 1 9 10
M  V30 10 1 10 11
M  V30 11 1 11 12
M  V30 12 1 12 13
M  V30 13 2 13 14
M  V30 14 1 14 15
M  V30 15 1 15 16
M  V30 16 1 16 17
M  V30 17 1 17 18
M  V30 18 2 18 19
M  V30 19 1 19 20
M  V30 20 2 20 21
M  V30 21 1 21 22
M  V30 22 2 22 23
M  V30 23 1 14 24
M  V30 24 2 24 25
M  V30 25 1 24 26
M  V30 26 2 26 27
M  V30 27 1 11 28
M  V30 28 2 28 29
M  V30 29 1 29 30
M  V30 30 2 30 31
M  V30 31 1 31 32
M  V30 32 2 32 33
M  V30 33 1 33 34
M  V30 34 2 34 35
M  V30 35 1 35 36
M  V30 36 1 36 37
M  V30 37 1 35 38
M  V30 38 2 38 39
M  V30 39 1 8 3
M  V30 40 1 26 13
M  V30 41 1 39 28
M  V30 42 1 10 5
M  V30 43 1 23 18
M  V30 44 1 39 32
M  V30 45 1 1 40
M  V30 46 1 1 41
M  V30 47 1 2 42
M  V30 48 1 3 43 CFG=3
M  V30 49 1 4 44
M  V30 50 1 4 45
M  V30 51 1 6 46
M  V30 52 1 6 47
M  V30 53 1 7 48
M  V30 54 1 7 49
M  V30 55 1 8 50 CFG=1
M  V30 56 1 9 51
M  V30 57 1 9 52
M  V30 58 1 10 53 CFG=3
M  V30 59 1 11 54 CFG=1
M  V30 60 1 12 55
M  V30 61 1 15 56
M  V30 62 1 16 57
M  V30 63 1 16 58
M  V30 64 1 17 59
M  V30 65 1 17 60
M  V30 66 1 19 61
M  V30 67 1 20 62
M  V30 68 1 21 63
M  V30 69 1 22 64
M  V30 70 1 23 65
M  V30 71 1 29 66
M  V30 72 1 30 67
M  V30 73 1 33 68
M  V30 74 1 34 69
M  V30 75 1 37 70
M  V30 76 1 37 71
M  V30 77 1 37 72
M  V30 78 1 38 73
M  V30 END BOND
M  V30 END CTAB
M  END
>  <catalyst_id>  (1) 
BSYKRGGWVNVYFU_MPPVQRIUSA_NONE

>  <source_smiles>  (1) 
C=C[C@H]1CN2CC[C@H]1C[C@H]2[C@@H](Nc1c(NCCc2ccccc2)c(=O)c1=O)c1ccnc2ccc(OC)cc12

>  <axial_configuration>  (1) 
none

>  <inchikey>  (1) 
BSYKRGGWVNVYFU-MPPVQRIUSA-N

>  <build_source>  (1) 
smiles

>  <rdkit_version>  (1) 
2025.09.6

>  <random_seed>  (1) 
42

>  <generated_at>  (1) 
2026-05-19T12:39:19

$$$$
