catalyst289
     RDKit          3D

  0  0  0  0  0  0  0  0  0  0999 V3000
M  V30 BEGIN CTAB
M  V30 COUNTS 61 65 0 0 0
M  V30 BEGIN ATOM
M  V30 1 C -5.469240 -0.172518 2.443208 0
M  V30 2 C -4.285177 0.133841 1.897172 0
M  V30 3 C -3.730004 1.536745 1.824168 0 CFG=1
M  V30 4 C -2.327553 1.639071 2.479007 0
M  V30 5 N -1.369488 2.409751 1.639587 0
M  V30 6 C -1.989536 3.720041 1.322356 0
M  V30 7 C -3.250474 3.556657 0.457125 0
M  V30 8 C -3.623588 2.064756 0.371695 0 CFG=1
M  V30 9 C -2.470618 1.346168 -0.355370 0
M  V30 10 C -1.130040 1.683170 0.339578 0 CFG=2
M  V30 11 C -0.202445 0.419510 0.513976 0 CFG=2
M  V30 12 N 0.878026 0.800776 1.458715 0
M  V30 13 S 1.663968 -0.410408 2.309878 0
M  V30 14 O 0.773681 -1.545024 2.426666 0
M  V30 15 O 2.234992 0.220979 3.479817 0
M  V30 16 C 3.005202 -0.826192 1.229169 0
M  V30 17 C 2.997141 -2.038254 0.536928 0
M  V30 18 C 4.049180 -2.340659 -0.328621 0
M  V30 19 C 5.110967 -1.441442 -0.499683 0
M  V30 20 C 6.252051 -1.785866 -1.411314 0
M  V30 21 C 5.123514 -0.245172 0.230627 0
M  V30 22 C 4.071493 0.066634 1.092779 0
M  V30 23 C 0.343222 -0.073488 -0.818085 0
M  V30 24 C 1.268577 0.735670 -1.496508 0
M  V30 25 C 1.769152 0.313097 -2.709294 0
M  V30 26 N 1.412408 -0.840797 -3.300273 0
M  V30 27 C 0.544013 -1.637629 -2.660637 0
M  V30 28 C 0.208959 -2.835071 -3.276843 0
M  V30 29 C -0.672554 -3.745805 -2.695825 0
M  V30 30 C -1.235024 -3.457735 -1.463379 0
M  V30 31 C -0.918015 -2.258753 -0.823500 0
M  V30 32 C -0.029824 -1.316996 -1.404676 0
M  V30 33 H -6.118381 0.585767 2.870381 0
M  V30 34 H -5.817101 -1.201003 2.474331 0
M  V30 35 H -3.681270 -0.674849 1.490685 0
M  V30 36 H -4.406769 2.207495 2.373269 0
M  V30 37 H -2.422356 2.139606 3.451965 0
M  V30 38 H -1.910063 0.652983 2.714327 0
M  V30 39 H -1.263330 4.360203 0.806406 0
M  V30 40 H -2.235037 4.247582 2.252802 0
M  V30 41 H -4.076623 4.131457 0.891857 0
M  V30 42 H -3.071713 3.955700 -0.548666 0
M  V30 43 H -4.564978 1.934748 -0.173601 0
M  V30 44 H -2.429865 1.681898 -1.399262 0
M  V30 45 H -2.657591 0.268349 -0.381444 0
M  V30 46 H -0.586985 2.391116 -0.302937 0
M  V30 47 H -0.812326 -0.340083 1.005217 0
M  V30 48 H 0.611680 1.585344 2.065474 0
M  V30 49 H 2.176268 -2.742143 0.650199 0
M  V30 50 H 4.031752 -3.280547 -0.876699 0
M  V30 51 H 5.908137 -2.395525 -2.253500 0
M  V30 52 H 6.704610 -0.880767 -1.829858 0
M  V30 53 H 7.016686 -2.341545 -0.859951 0
M  V30 54 H 5.953308 0.450980 0.129215 0
M  V30 55 H 4.085077 0.999820 1.650877 0
M  V30 56 H 1.610910 1.676731 -1.076150 0
M  V30 57 H 2.494230 0.909528 -3.255156 0
M  V30 58 H 0.654376 -3.068486 -4.241621 0
M  V30 59 H -0.908685 -4.675772 -3.205786 0
M  V30 60 H -1.915064 -4.163866 -0.993272 0
M  V30 61 H -1.371862 -2.089778 0.148597 0
M  V30 END ATOM
M  V30 BEGIN BOND
M  V30 1 2 1 2
M  V30 2 1 2 3
M  V30 3 1 3 4
M  V30 4 1 4 5
M  V30 5 1 5 6
M  V30 6 1 6 7
M  V30 7 1 7 8
M  V30 8 1 8 9
M  V30 9 1 9 10
M  V30 10 1 10 11
M  V30 11 1 11 12
M  V30 12 1 12 13
M  V30 13 2 13 14
M  V30 14 2 13 15
M  V30 15 1 13 16
M  V30 16 2 16 17
M  V30 17 1 17 18
M  V30 18 2 18 19
M  V30 19 1 19 20
M  V30 20 1 19 21
M  V30 21 2 21 22
M  V30 22 1 11 23
M  V30 23 2 23 24
M  V30 24 1 24 25
M  V30 25 2 25 26
M  V30 26 1 26 27
M  V30 27 2 27 28
M  V30 28 1 28 29
M  V30 29 2 29 30
M  V30 30 1 30 31
M  V30 31 2 31 32
M  V30 32 1 8 3
M  V30 33 1 22 16
M  V30 34 1 32 23
M  V30 35 1 10 5
M  V30 36 1 32 27
M  V30 37 1 1 33
M  V30 38 1 1 34
M  V30 39 1 2 35
M  V30 40 1 3 36 CFG=1
M  V30 41 1 4 37
M  V30 42 1 4 38
M  V30 43 1 6 39
M  V30 44 1 6 40
M  V30 45 1 7 41
M  V30 46 1 7 42
M  V30 47 1 8 43 CFG=3
M  V30 48 1 9 44
M  V30 49 1 9 45
M  V30 50 1 10 46 CFG=3
M  V30 51 1 11 47 CFG=1
M  V30 52 1 12 48
M  V30 53 1 17 49
M  V30 54 1 18 50
M  V30 55 1 20 51
M  V30 56 1 20 52
M  V30 57 1 20 53
M  V30 58 1 21 54
M  V30 59 1 22 55
M  V30 60 1 24 56
M  V30 61 1 25 57
M  V30 62 1 28 58
M  V30 63 1 29 59
M  V30 64 1 30 60
M  V30 65 1 31 61
M  V30 END BOND
M  V30 END CTAB
M  END
>  <catalyst_id>  (1) 
QWGLARSAVFCFAV_JZKJUIAGSA_NONE

>  <source_smiles>  (1) 
C=C[C@H]1CN2CC[C@H]1C[C@@H]2[C@H](NS(=O)(=O)c1ccc(C)cc1)c1ccnc2ccccc12

>  <axial_configuration>  (1) 
none

>  <inchikey>  (1) 
QWGLARSAVFCFAV-JZKJUIAGSA-N

>  <build_source>  (1) 
smiles

>  <rdkit_version>  (1) 
2025.09.6

>  <random_seed>  (1) 
42

>  <generated_at>  (1) 
2026-05-19T12:33:38

$$$$
