catalyst409
     RDKit          3D

  0  0  0  0  0  0  0  0  0  0999 V3000
M  V30 BEGIN CTAB
M  V30 COUNTS 128 134 0 0 0
M  V30 BEGIN ATOM
M  V30 1 C -5.946126 -0.359383 2.226535 0
M  V30 2 N -4.964661 0.391150 1.427424 0
M  V30 3 C -3.608642 0.126350 1.949144 0
M  V30 4 C -2.994959 1.360894 2.589087 0
M  V30 5 C -1.680804 1.759381 2.280382 0
M  V30 6 C -1.103446 2.861780 2.918577 0
M  V30 7 C -1.830642 3.543569 3.902539 0
M  V30 8 C -3.138590 3.167456 4.230043 0
M  V30 9 C -3.925908 3.938901 5.257927 0
M  V30 10 F -4.601424 4.986937 4.712809 0
M  V30 11 F -4.858151 3.182152 5.901630 0
M  V30 12 F -3.140503 4.470088 6.237201 0
M  V30 13 C -3.710688 2.080483 3.560510 0
M  V30 14 N 0.209290 3.317750 2.698817 0
M  V30 15 C 1.109842 3.146730 1.680352 0
M  V30 16 S 2.669318 3.637585 2.044718 0
M  V30 17 N 0.601772 2.714719 0.480119 0
M  V30 18 C 1.234024 2.411471 -0.749021 0
M  V30 19 C 2.580390 2.069050 -0.888627 0
M  V30 20 C 3.158070 1.812238 -2.144276 0
M  V30 21 C 2.348470 1.912731 -3.281648 0
M  V30 22 C 0.987765 2.233142 -3.173641 0
M  V30 23 C 0.128094 2.342023 -4.408691 0
M  V30 24 F -0.526853 1.182820 -4.691266 0
M  V30 25 F 0.829019 2.663537 -5.530033 0
M  V30 26 F -0.841956 3.292670 -4.291572 0
M  V30 27 C 0.437955 2.454743 -1.899138 0
M  V30 28 C 4.646257 1.527374 -2.243496 0
M  V30 29 N 5.064191 0.163386 -2.617577 0
M  V30 30 C 4.823374 -0.088278 -4.040131 0
M  V30 31 C 4.619322 -0.945252 -1.710326 0 CFG=1
M  V30 32 C 5.112669 -2.318491 -2.254835 0
M  V30 33 C 6.627829 -2.486931 -2.160148 0
M  V30 34 C 7.139469 -2.308396 -0.737036 0
M  V30 35 C 6.639878 -1.017590 -0.099426 0
M  V30 36 C 5.116550 -0.766059 -0.209107 0 CFG=2
M  V30 37 N 4.376790 -1.451786 0.902194 0
M  V30 38 C 3.997129 -2.837222 0.663498 0
M  V30 39 C 3.222438 -0.628477 1.330954 0
M  V30 40 C 2.400039 -1.225507 2.456715 0
M  V30 41 C 1.110514 -1.708921 2.185079 0
M  V30 42 C 0.384838 -2.422370 3.138803 0
M  V30 43 C 0.909877 -2.529546 4.430510 0
M  V30 44 C 2.172862 -1.995445 4.750448 0
M  V30 45 C 2.742258 -2.165064 6.137777 0
M  V30 46 F 3.597481 -1.168540 6.495525 0
M  V30 47 F 3.437098 -3.327599 6.272559 0
M  V30 48 F 1.780012 -2.191929 7.102825 0
M  V30 49 C 2.922929 -1.367219 3.745845 0
M  V30 50 N -0.857220 -3.047669 2.886358 0
M  V30 51 C -1.521565 -3.318400 1.712351 0
M  V30 52 S -3.102396 -3.850747 1.843466 0
M  V30 53 N -0.787349 -3.218675 0.562319 0
M  V30 54 C -1.123387 -2.734540 -0.719288 0
M  V30 55 C -2.350036 -2.158950 -1.045358 0
M  V30 56 C -2.586385 -1.594947 -2.310099 0
M  V30 57 C -1.553626 -1.616744 -3.258748 0
M  V30 58 C -0.306542 -2.182655 -2.954438 0
M  V30 59 C 0.794712 -2.219581 -3.986018 0
M  V30 60 F 0.620236 -3.217155 -4.896106 0
M  V30 61 F 0.899783 -1.065593 -4.702858 0
M  V30 62 F 2.028513 -2.424258 -3.440560 0
M  V30 63 C -0.109161 -2.745686 -1.683048 0
M  V30 64 C -3.946542 -1.008842 -2.645915 0
M  V30 65 N -4.144664 0.433155 -2.401747 0
M  V30 66 C -3.320237 1.237821 -3.299834 0
M  V30 67 C -4.090739 0.874619 -0.974651 0 CFG=1
M  V30 68 C -4.369310 2.396365 -0.813197 0
M  V30 69 C -5.793905 2.782757 -1.212336 0
M  V30 70 C -6.840369 1.960264 -0.467054 0
M  V30 71 C -6.547620 0.462592 -0.546800 0
M  V30 72 C -5.121354 0.110091 -0.036338 0 CFG=2
M  V30 73 H -5.916630 -1.432242 2.005866 0
M  V30 74 H -6.962552 0.011048 2.064643 0
M  V30 75 H -5.768888 -0.235615 3.300704 0
M  V30 76 H -3.613002 -0.657689 2.718643 0
M  V30 77 H -2.935681 -0.260479 1.180080 0
M  V30 78 H -1.105127 1.158144 1.582026 0
M  V30 79 H -1.387578 4.396336 4.416174 0
M  V30 80 H -4.730392 1.786070 3.806006 0
M  V30 81 H 0.602800 3.884427 3.445860 0
M  V30 82 H -0.393974 2.887960 0.407448 0
M  V30 83 H 3.226805 1.996818 -0.023580 0
M  V30 84 H 2.779198 1.763754 -4.270273 0
M  V30 85 H -0.617080 2.713485 -1.821483 0
M  V30 86 H 5.138619 1.815141 -1.307411 0
M  V30 87 H 5.072365 2.246707 -2.958339 0
M  V30 88 H 5.025225 0.800869 -4.648827 0
M  V30 89 H 3.797061 -0.413776 -4.234961 0
M  V30 90 H 5.510698 -0.845450 -4.429619 0
M  V30 91 H 3.522127 -0.960381 -1.715525 0
M  V30 92 H 4.792362 -2.478969 -3.289879 0
M  V30 93 H 4.631153 -3.143310 -1.727990 0
M  V30 94 H 6.907304 -3.482646 -2.523610 0
M  V30 95 H 7.127264 -1.766102 -2.817560 0
M  V30 96 H 6.856519 -3.169760 -0.125599 0
M  V30 97 H 8.236168 -2.301743 -0.748796 0
M  V30 98 H 6.952664 -0.987632 0.952027 0
M  V30 99 H 7.160382 -0.178693 -0.581794 0
M  V30 100 H 5.029512 0.294704 0.042839 0
M  V30 101 H 3.205486 -2.930655 -0.087038 0
M  V30 102 H 3.638267 -3.314917 1.581172 0
M  V30 103 H 4.849479 -3.451443 0.374938 0
M  V30 104 H 2.566832 -0.437983 0.473631 0
M  V30 105 H 3.579480 0.344942 1.687593 0
M  V30 106 H 0.703048 -1.502701 1.202415 0
M  V30 107 H 0.353430 -3.057851 5.204157 0
M  V30 108 H 3.926660 -0.998796 3.959856 0
M  V30 109 H -1.381553 -3.341051 3.705499 0
M  V30 110 H 0.175194 -3.509732 0.683673 0
M  V30 111 H -3.151757 -2.127665 -0.320143 0
M  V30 112 H -1.721660 -1.194418 -4.250216 0
M  V30 113 H 0.858922 -3.186870 -1.450024 0
M  V30 114 H -4.723807 -1.592702 -2.139817 0
M  V30 115 H -4.150797 -1.213088 -3.706547 0
M  V30 116 H -3.703575 2.257553 -3.394595 0
M  V30 117 H -2.284242 1.285355 -2.956171 0
M  V30 118 H -3.330366 0.836372 -4.319975 0
M  V30 119 H -3.066106 0.704704 -0.628573 0
M  V30 120 H -3.648031 2.997051 -1.377511 0
M  V30 121 H -4.210655 2.689087 0.231529 0
M  V30 122 H -5.955167 3.847781 -1.008871 0
M  V30 123 H -5.928180 2.647753 -2.291736 0
M  V30 124 H -7.830872 2.164087 -0.889074 0
M  V30 125 H -6.875690 2.277150 0.581771 0
M  V30 126 H -6.654813 0.137024 -1.589551 0
M  V30 127 H -7.319617 -0.095421 -0.007965 0
M  V30 128 H -4.992529 -0.968864 -0.156148 0
M  V30 END ATOM
M  V30 BEGIN BOND
M  V30 1 1 1 2
M  V30 2 1 2 3
M  V30 3 1 3 4
M  V30 4 1 4 5
M  V30 5 2 5 6
M  V30 6 1 6 7
M  V30 7 2 7 8
M  V30 8 1 8 9
M  V30 9 1 9 10
M  V30 10 1 9 11
M  V30 11 1 9 12
M  V30 12 1 8 13
M  V30 13 1 6 14
M  V30 14 1 14 15
M  V30 15 2 15 16
M  V30 16 1 15 17
M  V30 17 1 17 18
M  V30 18 1 18 19
M  V30 19 2 19 20
M  V30 20 1 20 21
M  V30 21 2 21 22
M  V30 22 1 22 23
M  V30 23 1 23 24
M  V30 24 1 23 25
M  V30 25 1 23 26
M  V30 26 1 22 27
M  V30 27 1 20 28
M  V30 28 1 28 29
M  V30 29 1 29 30
M  V30 30 1 29 31
M  V30 31 1 31 32
M  V30 32 1 32 33
M  V30 33 1 33 34
M  V30 34 1 34 35
M  V30 35 1 35 36
M  V30 36 1 36 37
M  V30 37 1 37 38
M  V30 38 1 37 39
M  V30 39 1 39 40
M  V30 40 1 40 41
M  V30 41 2 41 42
M  V30 42 1 42 43
M  V30 43 2 43 44
M  V30 44 1 44 45
M  V30 45 1 45 46
M  V30 46 1 45 47
M  V30 47 1 45 48
M  V30 48 1 44 49
M  V30 49 1 42 50
M  V30 50 1 50 51
M  V30 51 2 51 52
M  V30 52 1 51 53
M  V30 53 1 53 54
M  V30 54 1 54 55
M  V30 55 2 55 56
M  V30 56 1 56 57
M  V30 57 2 57 58
M  V30 58 1 58 59
M  V30 59 1 59 60
M  V30 60 1 59 61
M  V30 61 1 59 62
M  V30 62 1 58 63
M  V30 63 1 56 64
M  V30 64 1 64 65
M  V30 65 1 65 66
M  V30 66 1 65 67
M  V30 67 1 67 68
M  V30 68 1 68 69
M  V30 69 1 69 70
M  V30 70 1 70 71
M  V30 71 1 71 72
M  V30 72 1 72 2
M  V30 73 2 13 4
M  V30 74 2 27 18
M  V30 75 1 36 31
M  V30 76 2 49 40
M  V30 77 2 63 54
M  V30 78 1 72 67
M  V30 79 1 1 73
M  V30 80 1 1 74
M  V30 81 1 1 75
M  V30 82 1 3 76
M  V30 83 1 3 77
M  V30 84 1 5 78
M  V30 85 1 7 79
M  V30 86 1 13 80
M  V30 87 1 14 81
M  V30 88 1 17 82
M  V30 89 1 19 83
M  V30 90 1 21 84
M  V30 91 1 27 85
M  V30 92 1 28 86
M  V30 93 1 28 87
M  V30 94 1 30 88
M  V30 95 1 30 89
M  V30 96 1 30 90
M  V30 97 1 31 91 CFG=1
M  V30 98 1 32 92
M  V30 99 1 32 93
M  V30 100 1 33 94
M  V30 101 1 33 95
M  V30 102 1 34 96
M  V30 103 1 34 97
M  V30 104 1 35 98
M  V30 105 1 35 99
M  V30 106 1 36 100 CFG=1
M  V30 107 1 38 101
M  V30 108 1 38 102
M  V30 109 1 38 103
M  V30 110 1 39 104
M  V30 111 1 39 105
M  V30 112 1 41 106
M  V30 113 1 43 107
M  V30 114 1 49 108
M  V30 115 1 50 109
M  V30 116 1 53 110
M  V30 117 1 55 111
M  V30 118 1 57 112
M  V30 119 1 63 113
M  V30 120 1 64 114
M  V30 121 1 64 115
M  V30 122 1 66 116
M  V30 123 1 66 117
M  V30 124 1 66 118
M  V30 125 1 67 119 CFG=1
M  V30 126 1 68 120
M  V30 127 1 68 121
M  V30 128 1 69 122
M  V30 129 1 69 123
M  V30 130 1 70 124
M  V30 131 1 70 125
M  V30 132 1 71 126
M  V30 133 1 71 127
M  V30 134 1 72 128 CFG=1
M  V30 END BOND
M  V30 END CTAB
M  END
>  <catalyst_id>  (1) 
XZYVKOCNEIKULV_ITMZJIMRSA_NONE

>  <source_smiles>  (1) 
CN1Cc2cc(cc(C(F)(F)F)c2)NC(=S)Nc2cc(cc(C(F)(F)F)c2)CN(C)[C@H]2CCCC[C@@H]2N(C)Cc2cc(cc(C(F)(F)F)c2)NC(=S)Nc2cc(cc(C(F)(F)F)c2)CN(C)[C@H]2CCCC[C@@H]21

>  <axial_configuration>  (1) 
none

>  <inchikey>  (1) 
XZYVKOCNEIKULV-ITMZJIMRSA-N

>  <build_source>  (1) 
smiles

>  <rdkit_version>  (1) 
2025.09.6

>  <random_seed>  (1) 
42

>  <generated_at>  (1) 
2026-05-19T12:37:24

$$$$
