catalyst133
     RDKit          3D

  0  0  0  0  0  0  0  0  0  0999 V3000
M  V30 BEGIN CTAB
M  V30 COUNTS 81 85 0 0 0
M  V30 BEGIN ATOM
M  V30 1 C -5.149365 3.946148 0.290157 0
M  V30 2 C -4.160735 4.568075 0.945828 0
M  V30 3 C -2.717541 4.729091 0.515499 0 CFG=1
M  V30 4 C -1.739833 4.409690 1.682634 0
M  V30 5 N -0.619566 3.528715 1.259449 0
M  V30 6 C 0.091319 4.186543 0.139833 0
M  V30 7 C -0.826000 4.411836 -1.070314 0
M  V30 8 C -2.251314 3.933740 -0.732074 0 CFG=1
M  V30 9 C -2.135637 2.431176 -0.411601 0
M  V30 10 C -1.215853 2.224131 0.813701 0 CFG=1
M  V30 11 C -0.131325 1.111093 0.570615 0 CFG=1
M  V30 12 N 0.905422 1.182896 1.620623 0
M  V30 13 C 2.208291 0.763286 1.493774 0
M  V30 14 S 3.350059 1.545188 2.423974 0
M  V30 15 N 2.384784 -0.279742 0.622425 0
M  V30 16 C 3.505718 -0.747812 -0.089860 0
M  V30 17 C 4.678233 -0.020316 -0.288128 0
M  V30 18 C 5.729210 -0.537792 -1.067318 0
M  V30 19 C 6.998388 0.261161 -1.249568 0
M  V30 20 F 7.689127 -0.089535 -2.371155 0
M  V30 21 F 7.865128 0.102862 -0.213231 0
M  V30 22 F 6.775639 1.599935 -1.358215 0
M  V30 23 C 5.587624 -1.805338 -1.653592 0
M  V30 24 C 4.410104 -2.545706 -1.482721 0
M  V30 25 C 4.223605 -3.883869 -2.154909 0
M  V30 26 F 3.497063 -3.787047 -3.302997 0
M  V30 27 F 3.567883 -4.784555 -1.372249 0
M  V30 28 F 5.397652 -4.478773 -2.504454 0
M  V30 29 C 3.376241 -2.000877 -0.704695 0
M  V30 30 C -0.754127 -0.283294 0.509718 0
M  V30 31 C -1.322514 -0.806888 1.687007 0
M  V30 32 C -1.879959 -2.077456 1.693279 0
M  V30 33 C -2.513601 -2.714088 2.934291 0
M  V30 34 C -2.553260 -1.794485 4.171957 0
M  V30 35 C -1.710685 -3.976477 3.306744 0
M  V30 36 C -3.965131 -3.117416 2.602955 0
M  V30 37 N -1.871598 -2.838558 0.573520 0
M  V30 38 C -1.321847 -2.371400 -0.555318 0
M  V30 39 C -1.311626 -3.214258 -1.656650 0
M  V30 40 C -0.733403 -2.844432 -2.873911 0
M  V30 41 C -0.154239 -1.592358 -3.001808 0
M  V30 42 O 0.457343 -1.096003 -4.117832 0
M  V30 43 C 0.642130 -1.998664 -5.202677 0
M  V30 44 C -0.174650 -0.722403 -1.908020 0
M  V30 45 C -0.744615 -1.090151 -0.661063 0
M  V30 46 H -6.152565 3.917859 0.706812 0
M  V30 47 H -5.006923 3.462621 -0.669873 0
M  V30 48 H -4.417629 5.049567 1.890256 0
M  V30 49 H -2.603605 5.797719 0.280731 0
M  V30 50 H -1.326358 5.347469 2.077152 0
M  V30 51 H -2.257894 3.947344 2.533203 0
M  V30 52 H 0.497614 5.147285 0.481130 0
M  V30 53 H 0.967337 3.598837 -0.157364 0
M  V30 54 H -0.441316 3.862921 -1.938431 0
M  V30 55 H -0.836893 5.474542 -1.340090 0
M  V30 56 H -2.909993 4.101000 -1.590953 0
M  V30 57 H -1.746981 1.911528 -1.295125 0
M  V30 58 H -3.120406 1.999114 -0.204850 0
M  V30 59 H -1.843379 1.882256 1.648465 0
M  V30 60 H 0.394920 1.348159 -0.356779 0
M  V30 61 H 0.835225 2.038486 2.170278 0
M  V30 62 H 1.583762 -0.896475 0.594122 0
M  V30 63 H 4.796689 0.977544 0.123998 0
M  V30 64 H 6.399362 -2.212838 -2.258707 0
M  V30 65 H 2.456463 -2.574256 -0.584577 0
M  V30 66 H -1.300851 -0.206612 2.591780 0
M  V30 67 H -1.545682 -1.506672 4.493871 0
M  V30 68 H -3.121970 -0.878272 3.974666 0
M  V30 69 H -3.031183 -2.296960 5.021357 0
M  V30 70 H -1.711466 -4.714963 2.496495 0
M  V30 71 H -2.130198 -4.465470 4.193523 0
M  V30 72 H -0.664659 -3.729667 3.524166 0
M  V30 73 H -4.457516 -3.572922 3.469932 0
M  V30 74 H -4.557995 -2.245795 2.301109 0
M  V30 75 H -4.011402 -3.845299 1.784525 0
M  V30 76 H -1.761583 -4.200926 -1.561938 0
M  V30 77 H -0.757551 -3.558336 -3.690294 0
M  V30 78 H 1.201425 -1.473187 -5.982672 0
M  V30 79 H -0.319896 -2.301581 -5.628632 0
M  V30 80 H 1.232324 -2.869462 -4.898020 0
M  V30 81 H 0.288236 0.249570 -2.052885 0
M  V30 END ATOM
M  V30 BEGIN BOND
M  V30 1 2 1 2
M  V30 2 1 2 3
M  V30 3 1 3 4
M  V30 4 1 4 5
M  V30 5 1 5 6
M  V30 6 1 6 7
M  V30 7 1 7 8
M  V30 8 1 8 9
M  V30 9 1 9 10
M  V30 10 1 10 11
M  V30 11 1 11 12
M  V30 12 1 12 13
M  V30 13 2 13 14
M  V30 14 1 13 15
M  V30 15 1 15 16
M  V30 16 2 16 17
M  V30 17 1 17 18
M  V30 18 1 18 19
M  V30 19 1 19 20
M  V30 20 1 19 21
M  V30 21 1 19 22
M  V30 22 2 18 23
M  V30 23 1 23 24
M  V30 24 1 24 25
M  V30 25 1 25 26
M  V30 26 1 25 27
M  V30 27 1 25 28
M  V30 28 2 24 29
M  V30 29 1 11 30
M  V30 30 2 30 31
M  V30 31 1 31 32
M  V30 32 1 32 33
M  V30 33 1 33 34
M  V30 34 1 33 35
M  V30 35 1 33 36
M  V30 36 2 32 37
M  V30 37 1 37 38
M  V30 38 2 38 39
M  V30 39 1 39 40
M  V30 40 2 40 41
M  V30 41 1 41 42
M  V30 42 1 42 43
M  V30 43 1 41 44
M  V30 44 2 44 45
M  V30 45 1 8 3
M  V30 46 1 29 16
M  V30 47 1 45 30
M  V30 48 1 10 5
M  V30 49 1 45 38
M  V30 50 1 1 46
M  V30 51 1 1 47
M  V30 52 1 2 48
M  V30 53 1 3 49 CFG=3
M  V30 54 1 4 50
M  V30 55 1 4 51
M  V30 56 1 6 52
M  V30 57 1 6 53
M  V30 58 1 7 54
M  V30 59 1 7 55
M  V30 60 1 8 56 CFG=3
M  V30 61 1 9 57
M  V30 62 1 9 58
M  V30 63 1 10 59 CFG=1
M  V30 64 1 11 60 CFG=3
M  V30 65 1 12 61
M  V30 66 1 15 62
M  V30 67 1 17 63
M  V30 68 1 23 64
M  V30 69 1 29 65
M  V30 70 1 31 66
M  V30 71 1 34 67
M  V30 72 1 34 68
M  V30 73 1 34 69
M  V30 74 1 35 70
M  V30 75 1 35 71
M  V30 76 1 35 72
M  V30 77 1 36 73
M  V30 78 1 36 74
M  V30 79 1 36 75
M  V30 80 1 39 76
M  V30 81 1 40 77
M  V30 82 1 43 78
M  V30 83 1 43 79
M  V30 84 1 43 80
M  V30 85 1 44 81
M  V30 END BOND
M  V30 END CTAB
M  END
>  <catalyst_id>  (1) 
JMJIUBPFZGMLKG_GTOBKIOZSA_NONE

>  <source_smiles>  (1) 
C=C[C@H]1CN2CC[C@H]1C[C@H]2[C@@H](NC(=S)Nc1cc(C(F)(F)F)cc(C(F)(F)F)c1)c1cc(C(C)(C)C)nc2ccc(OC)cc12

>  <axial_configuration>  (1) 
none

>  <inchikey>  (1) 
JMJIUBPFZGMLKG-GTOBKIOZSA-N

>  <build_source>  (1) 
smiles

>  <rdkit_version>  (1) 
2025.09.6

>  <random_seed>  (1) 
42

>  <generated_at>  (1) 
2026-05-19T12:33:06

$$$$
