catalyst166
     RDKit          3D

  0  0  0  0  0  0  0  0  0  0999 V3000
M  V30 BEGIN CTAB
M  V30 COUNTS 75 80 0 0 0
M  V30 BEGIN ATOM
M  V30 1 C -2.898579 -3.358041 3.586485 0
M  V30 2 C -2.990321 -1.914976 3.106954 0
M  V30 3 C -1.697071 -1.122781 3.365221 0 CFG=1
M  V30 4 C -0.515660 -1.599389 2.485370 0
M  V30 5 N 0.066878 -0.491132 1.688512 0
M  V30 6 C 0.555371 0.551666 2.619653 0
M  V30 7 C -0.563260 1.082317 3.527254 0
M  V30 8 C -1.889639 0.398632 3.151943 0 CFG=1
M  V30 9 C -2.137863 0.711564 1.666862 0
M  V30 10 C -1.024443 0.068228 0.810085 0 CFG=1
M  V30 11 C -0.475512 1.034766 -0.315180 0 CFG=1
M  V30 12 N 0.807328 0.480336 -0.803545 0
M  V30 13 C 1.716372 1.172259 -1.462762 0
M  V30 14 C 3.013491 0.987106 -1.876787 0
M  V30 15 N 3.958713 0.068647 -1.829845 0
M  V30 16 C 3.709172 -1.297947 -1.375431 0
M  V30 17 C 5.028472 -2.057594 -1.205056 0
M  V30 18 C 4.803091 -3.470197 -0.726986 0
M  V30 19 C 4.699037 -3.746999 0.642986 0
M  V30 20 C 4.467603 -5.050347 1.084894 0
M  V30 21 C 4.334425 -6.086824 0.162982 0
M  V30 22 C 4.431283 -5.821125 -1.201641 0
M  V30 23 C 4.662506 -4.518460 -1.646147 0
M  V30 24 C 3.058122 2.327399 -2.514650 0
M  V30 25 O 3.829699 3.002673 -3.150194 0
M  V30 26 C 1.677855 2.548296 -2.024424 0
M  V30 27 O 0.939252 3.501373 -2.065590 0
M  V30 28 C -1.473917 1.156651 -1.464480 0
M  V30 29 C -1.603839 0.076978 -2.354421 0
M  V30 30 C -2.530887 0.149447 -3.371647 0
M  V30 31 N -3.342042 1.204035 -3.564602 0
M  V30 32 C -3.228455 2.249635 -2.732202 0
M  V30 33 C -4.070306 3.330014 -2.951311 0
M  V30 34 C -4.044648 4.472270 -2.146372 0
M  V30 35 C -3.147691 4.545662 -1.092432 0
M  V30 36 O -3.009287 5.590446 -0.222006 0
M  V30 37 C -3.764718 6.762522 -0.502805 0
M  V30 38 C -2.291075 3.466360 -0.856098 0
M  V30 39 C -2.309601 2.294922 -1.656487 0
M  V30 40 H -2.677361 -3.400911 4.657724 0
M  V30 41 H -3.851060 -3.870726 3.418082 0
M  V30 42 H -2.121381 -3.912700 3.052849 0
M  V30 43 H -3.823071 -1.431423 3.631798 0
M  V30 44 H -3.240818 -1.912644 2.040102 0
M  V30 45 H -1.419641 -1.274077 4.418133 0
M  V30 46 H -0.814498 -2.405914 1.805064 0
M  V30 47 H 0.265016 -2.034934 3.122479 0
M  V30 48 H 1.367151 0.141274 3.233490 0
M  V30 49 H 1.010049 1.378269 2.061463 0
M  V30 50 H -0.652122 2.169449 3.414261 0
M  V30 51 H -0.320628 0.885598 4.578342 0
M  V30 52 H -2.704741 0.786454 3.772382 0
M  V30 53 H -2.165230 1.798619 1.539005 0
M  V30 54 H -3.116706 0.332439 1.352204 0
M  V30 55 H -1.462116 -0.797470 0.291872 0
M  V30 56 H -0.251822 2.005093 0.136740 0
M  V30 57 H 1.104157 -0.283228 -0.184739 0
M  V30 58 H 4.805623 0.181809 -2.389683 0
M  V30 59 H 3.069596 -1.811661 -2.103837 0
M  V30 60 H 3.174168 -1.281952 -0.417967 0
M  V30 61 H 5.679370 -1.530069 -0.495586 0
M  V30 62 H 5.580741 -2.074033 -2.153713 0
M  V30 63 H 4.798056 -2.948357 1.375164 0
M  V30 64 H 4.391384 -5.257163 2.149195 0
M  V30 65 H 4.155319 -7.101765 0.507893 0
M  V30 66 H 4.326715 -6.629560 -1.920668 0
M  V30 67 H 4.733094 -4.328403 -2.714896 0
M  V30 68 H -0.984374 -0.809751 -2.256878 0
M  V30 69 H -2.652640 -0.665792 -4.078696 0
M  V30 70 H -4.773248 3.282395 -3.780516 0
M  V30 71 H -4.735182 5.275808 -2.376807 0
M  V30 72 H -3.517562 7.167164 -1.489994 0
M  V30 73 H -3.498930 7.517953 0.242912 0
M  V30 74 H -4.838476 6.568531 -0.412013 0
M  V30 75 H -1.588694 3.573290 -0.035108 0
M  V30 END ATOM
M  V30 BEGIN BOND
M  V30 1 1 1 2
M  V30 2 1 2 3
M  V30 3 1 3 4
M  V30 4 1 4 5
M  V30 5 1 5 6
M  V30 6 1 6 7
M  V30 7 1 7 8
M  V30 8 1 8 9
M  V30 9 1 9 10
M  V30 10 1 10 11
M  V30 11 1 11 12
M  V30 12 1 12 13
M  V30 13 2 13 14
M  V30 14 1 14 15
M  V30 15 1 15 16
M  V30 16 1 16 17
M  V30 17 1 17 18
M  V30 18 2 18 19
M  V30 19 1 19 20
M  V30 20 2 20 21
M  V30 21 1 21 22
M  V30 22 2 22 23
M  V30 23 1 14 24
M  V30 24 2 24 25
M  V30 25 1 24 26
M  V30 26 2 26 27
M  V30 27 1 11 28
M  V30 28 2 28 29
M  V30 29 1 29 30
M  V30 30 2 30 31
M  V30 31 1 31 32
M  V30 32 2 32 33
M  V30 33 1 33 34
M  V30 34 2 34 35
M  V30 35 1 35 36
M  V30 36 1 36 37
M  V30 37 1 35 38
M  V30 38 2 38 39
M  V30 39 1 8 3
M  V30 40 1 26 13
M  V30 41 1 39 28
M  V30 42 1 10 5
M  V30 43 1 23 18
M  V30 44 1 39 32
M  V30 45 1 1 40
M  V30 46 1 1 41
M  V30 47 1 1 42
M  V30 48 1 2 43
M  V30 49 1 2 44
M  V30 50 1 3 45 CFG=1
M  V30 51 1 4 46
M  V30 52 1 4 47
M  V30 53 1 6 48
M  V30 54 1 6 49
M  V30 55 1 7 50
M  V30 56 1 7 51
M  V30 57 1 8 52 CFG=1
M  V30 58 1 9 53
M  V30 59 1 9 54
M  V30 60 1 10 55 CFG=3
M  V30 61 1 11 56 CFG=1
M  V30 62 1 12 57
M  V30 63 1 15 58
M  V30 64 1 16 59
M  V30 65 1 16 60
M  V30 66 1 17 61
M  V30 67 1 17 62
M  V30 68 1 19 63
M  V30 69 1 20 64
M  V30 70 1 21 65
M  V30 71 1 22 66
M  V30 72 1 23 67
M  V30 73 1 29 68
M  V30 74 1 30 69
M  V30 75 1 33 70
M  V30 76 1 34 71
M  V30 77 1 37 72
M  V30 78 1 37 73
M  V30 79 1 37 74
M  V30 80 1 38 75
M  V30 END BOND
M  V30 END CTAB
M  END
>  <catalyst_id>  (1) 
LBMXXLGAXFWWAQ_MPPVQRIUSA_NONE

>  <source_smiles>  (1) 
CC[C@H]1CN2CC[C@H]1C[C@H]2[C@@H](Nc1c(NCCc2ccccc2)c(=O)c1=O)c1ccnc2ccc(OC)cc12

>  <axial_configuration>  (1) 
none

>  <inchikey>  (1) 
LBMXXLGAXFWWAQ-MPPVQRIUSA-N

>  <build_source>  (1) 
smiles

>  <rdkit_version>  (1) 
2025.09.6

>  <random_seed>  (1) 
42

>  <generated_at>  (1) 
2026-05-19T12:40:25

$$$$
