catalyst382
     RDKit          3D

  0  0  0  0  0  0  0  0  0  0999 V3000
M  V30 BEGIN CTAB
M  V30 COUNTS 90 100 0 0 0
M  V30 BEGIN ATOM
M  V30 1 O -1.463951 2.064019 -1.364981 0
M  V30 2 P -0.509328 1.484225 -0.367192 0
M  V30 3 O 0.072704 2.627509 0.605040 0
M  V30 4 O 0.812260 0.823766 -1.007942 0
M  V30 5 C 1.623828 0.036068 -0.221654 0
M  V30 6 C 2.933200 0.512081 0.006080 0
M  V30 7 C 3.392275 1.812976 -0.520707 0
M  V30 8 C 3.307484 2.922930 0.333985 0
M  V30 9 C 3.686250 4.201179 -0.074986 0
M  V30 10 C 3.563265 5.274916 0.824226 0
M  V30 11 C 3.924057 6.566598 0.454345 0
M  V30 12 C 4.414030 6.797228 -0.820758 0
M  V30 13 C 4.541012 5.734550 -1.721163 0
M  V30 14 C 4.182700 4.402594 -1.384007 0
M  V30 15 C 4.291644 3.275959 -2.276644 0
M  V30 16 C 4.784549 3.387222 -3.603030 0
M  V30 17 C 4.884452 2.293275 -4.465043 0
M  V30 18 C 4.493056 1.041277 -4.029723 0
M  V30 19 C 4.005319 0.889932 -2.734114 0
M  V30 20 C 3.892104 1.981024 -1.837064 0
M  V30 21 C 3.797382 -0.266310 0.777827 0
M  V30 22 C 3.354011 -1.462583 1.338836 0
M  V30 23 C 2.038388 -1.928764 1.093086 0
M  V30 24 C 1.143721 -1.214309 0.243906 0
M  V30 25 C -0.175057 -1.683251 -0.111179 0
M  V30 26 C -0.439797 -2.942279 -0.744305 0
M  V30 27 C -1.769079 -3.387476 -0.948405 0
M  V30 28 C -2.842952 -2.573301 -0.566162 0
M  V30 29 C -2.632802 -1.307926 -0.015742 0
M  V30 30 C -3.790040 -0.470899 0.358487 0
M  V30 31 C -4.276005 0.438942 -0.591300 0
M  V30 32 C -5.369798 1.264922 -0.330689 0
M  V30 33 C -5.800890 2.165461 -1.320280 0
M  V30 34 C -6.890536 3.003505 -1.105404 0
M  V30 35 C -7.561114 2.950021 0.105526 0
M  V30 36 C -7.136425 2.060467 1.097818 0
M  V30 37 C -6.028602 1.189957 0.918552 0
M  V30 38 C -5.548426 0.262615 1.911577 0
M  V30 39 C -6.146607 0.124665 3.191574 0
M  V30 40 C -5.674331 -0.770965 4.153040 0
M  V30 41 C -4.579317 -1.564442 3.868666 0
M  V30 42 C -3.964730 -1.459707 2.623226 0
M  V30 43 C -4.423578 -0.563370 1.625401 0
M  V30 44 C -1.306421 -0.876413 0.157874 0
M  V30 45 O -1.116436 0.394105 0.653830 0
M  V30 46 C -2.097915 -4.686331 -1.650163 0
M  V30 47 C -0.897613 -5.596957 -1.875427 0
M  V30 48 C 0.289953 -4.781869 -2.359534 0
M  V30 49 C 0.705982 -3.793335 -1.271934 0
M  V30 50 C 1.633634 -3.164735 1.881268 0
M  V30 51 C 2.069960 -3.031896 3.342360 0
M  V30 52 C 3.557724 -2.701599 3.511400 0
M  V30 53 C 4.260083 -2.286852 2.218036 0
M  V30 54 H 0.177787 3.457762 0.104639 0
M  V30 55 H 2.918243 2.774100 1.342177 0
M  V30 56 H 3.182109 5.110207 1.830619 0
M  V30 57 H 3.823444 7.386118 1.160492 0
M  V30 58 H 4.700208 7.801348 -1.122814 0
M  V30 59 H 4.930546 5.975290 -2.706148 0
M  V30 60 H 5.106582 4.345774 -3.999827 0
M  V30 61 H 5.266585 2.427764 -5.473330 0
M  V30 62 H 4.562666 0.181784 -4.690464 0
M  V30 63 H 3.705836 -0.110888 -2.427892 0
M  V30 64 H 4.811445 0.081832 0.966442 0
M  V30 65 H -3.864087 -2.918431 -0.727837 0
M  V30 66 H -3.773448 0.506455 -1.556784 0
M  V30 67 H -5.278782 2.223230 -2.274018 0
M  V30 68 H -7.208745 3.694604 -1.880657 0
M  V30 69 H -8.413081 3.599720 0.287157 0
M  V30 70 H -7.696999 2.065050 2.027721 0
M  V30 71 H -7.007125 0.725250 3.471692 0
M  V30 72 H -6.164337 -0.839416 5.120301 0
M  V30 73 H -4.197500 -2.262214 4.608438 0
M  V30 74 H -3.101320 -2.096445 2.438811 0
M  V30 75 H -2.855151 -5.234744 -1.076862 0
M  V30 76 H -2.538681 -4.437105 -2.624123 0
M  V30 77 H -0.637458 -6.110370 -0.941147 0
M  V30 78 H -1.153015 -6.372538 -2.605930 0
M  V30 79 H 1.130578 -5.444354 -2.594680 0
M  V30 80 H 0.029786 -4.247039 -3.281586 0
M  V30 81 H 1.494715 -3.153720 -1.684155 0
M  V30 82 H 1.127259 -4.369418 -0.445314 0
M  V30 83 H 2.110298 -4.046891 1.439553 0
M  V30 84 H 0.551279 -3.322703 1.866556 0
M  V30 85 H 1.831383 -3.952816 3.887269 0
M  V30 86 H 1.480927 -2.235538 3.817293 0
M  V30 87 H 3.647681 -1.892757 4.248312 0
M  V30 88 H 4.085037 -3.560402 3.944084 0
M  V30 89 H 5.178471 -1.741496 2.465137 0
M  V30 90 H 4.565424 -3.177787 1.654449 0
M  V30 END ATOM
M  V30 BEGIN BOND
M  V30 1 2 1 2
M  V30 2 1 2 3
M  V30 3 1 2 4
M  V30 4 1 4 5
M  V30 5 2 5 6
M  V30 6 1 6 7
M  V30 7 2 7 8
M  V30 8 1 8 9
M  V30 9 2 9 10
M  V30 10 1 10 11
M  V30 11 2 11 12
M  V30 12 1 12 13
M  V30 13 2 13 14
M  V30 14 1 14 15
M  V30 15 2 15 16
M  V30 16 1 16 17
M  V30 17 2 17 18
M  V30 18 1 18 19
M  V30 19 2 19 20
M  V30 20 1 6 21
M  V30 21 2 21 22
M  V30 22 1 22 23
M  V30 23 2 23 24
M  V30 24 1 24 25
M  V30 25 2 25 26
M  V30 26 1 26 27
M  V30 27 2 27 28
M  V30 28 1 28 29
M  V30 29 1 29 30
M  V30 30 2 30 31
M  V30 31 1 31 32
M  V30 32 2 32 33
M  V30 33 1 33 34
M  V30 34 2 34 35
M  V30 35 1 35 36
M  V30 36 2 36 37
M  V30 37 1 37 38
M  V30 38 2 38 39
M  V30 39 1 39 40
M  V30 40 2 40 41
M  V30 41 1 41 42
M  V30 42 2 42 43
M  V30 43 2 29 44
M  V30 44 1 44 45
M  V30 45 1 27 46
M  V30 46 1 46 47
M  V30 47 1 47 48
M  V30 48 1 48 49
M  V30 49 1 23 50
M  V30 50 1 50 51
M  V30 51 1 51 52
M  V30 52 1 52 53
M  V30 53 1 45 2
M  V30 54 1 24 5
M  V30 55 1 44 25
M  V30 56 1 20 7
M  V30 57 1 53 22
M  V30 58 1 14 9
M  V30 59 1 20 15
M  V30 60 1 49 26
M  V30 61 1 43 30
M  V30 62 1 37 32
M  V30 63 1 43 38
M  V30 64 1 3 54
M  V30 65 1 8 55
M  V30 66 1 10 56
M  V30 67 1 11 57
M  V30 68 1 12 58
M  V30 69 1 13 59
M  V30 70 1 16 60
M  V30 71 1 17 61
M  V30 72 1 18 62
M  V30 73 1 19 63
M  V30 74 1 21 64
M  V30 75 1 28 65
M  V30 76 1 31 66
M  V30 77 1 33 67
M  V30 78 1 34 68
M  V30 79 1 35 69
M  V30 80 1 36 70
M  V30 81 1 39 71
M  V30 82 1 40 72
M  V30 83 1 41 73
M  V30 84 1 42 74
M  V30 85 1 46 75
M  V30 86 1 46 76
M  V30 87 1 47 77
M  V30 88 1 47 78
M  V30 89 1 48 79
M  V30 90 1 48 80
M  V30 91 1 49 81
M  V30 92 1 49 82
M  V30 93 1 50 83
M  V30 94 1 50 84
M  V30 95 1 51 85
M  V30 96 1 51 86
M  V30 97 1 52 87
M  V30 98 1 52 88
M  V30 99 1 53 89
M  V30 100 1 53 90
M  V30 END BOND
M  V30 END CTAB
M  END
>  <catalyst_id>  (1) 
WNNJRQZVAIOFGD_UHFFFAOYSA_R

>  <source_smiles>  (1) 
O=P1(O)Oc2c(-c3cc4ccccc4c4ccccc34)cc3c(c2-c2c4c(cc(-c5cc6ccccc6c6ccccc56)c2O1)CCCC4)CCCC3

>  <axial_configuration>  (1) 
R

>  <inchikey>  (1) 
WNNJRQZVAIOFGD-UHFFFAOYSA-N

>  <build_source>  (1) 
smiles+axial_free

>  <final_biaryl_angle_deg>  (1) 
95.00

>  <rdkit_version>  (1) 
2025.09.6

>  <random_seed>  (1) 
42

>  <generated_at>  (1) 
2026-05-19T12:30:03

$$$$
