catalyst431
     RDKit          3D

  0  0  0  0  0  0  0  0  0  0999 V3000
M  V30 BEGIN CTAB
M  V30 COUNTS 33 36 0 0 0
M  V30 BEGIN ATOM
M  V30 1 C -4.365457 1.529970 0.209505 0
M  V30 2 C -3.123371 2.077565 -0.100996 0
M  V30 3 C -2.116474 1.273472 -0.640777 0
M  V30 4 C -2.335549 -0.092171 -0.875875 0
M  V30 5 C -1.254691 -1.006637 -1.440620 0 CFG=2
M  V30 6 C -0.733984 -2.002279 -0.388518 0
M  V30 7 C 0.188245 -1.306700 0.607454 0
M  V30 8 N 1.183092 -0.579702 -0.142385 0
M  V30 9 C 0.914087 -0.135823 -1.418193 0
M  V30 10 N -0.153224 -0.286746 -2.115578 0
M  V30 11 S 2.284194 0.777033 -2.085792 0
M  V30 12 C 3.149524 0.626993 -0.533289 0
M  V30 13 C 4.385789 1.163483 -0.209784 0
M  V30 14 C 4.883362 0.941862 1.073439 0
M  V30 15 C 4.142395 0.197136 2.001624 0
M  V30 16 C 2.894263 -0.338731 1.659389 0
M  V30 17 C 2.390493 -0.127101 0.383137 0
M  V30 18 C -3.598281 -0.625811 -0.563430 0
M  V30 19 C -4.604327 0.178470 -0.023844 0
M  V30 20 H -5.148605 2.158620 0.624403 0
M  V30 21 H -2.936678 3.134766 0.069017 0
M  V30 22 H -1.161359 1.732146 -0.885552 0
M  V30 23 H -1.738441 -1.599749 -2.228809 0
M  V30 24 H -1.551735 -2.500329 0.144328 0
M  V30 25 H -0.166213 -2.789571 -0.903413 0
M  V30 26 H -0.375261 -0.622932 1.252404 0
M  V30 27 H 0.646816 -2.069056 1.247451 0
M  V30 28 H 4.950670 1.742317 -0.933092 0
M  V30 29 H 5.850537 1.350725 1.356968 0
M  V30 30 H 4.542690 0.034334 3.000212 0
M  V30 31 H 2.342812 -0.909003 2.399144 0
M  V30 32 H -3.809251 -1.677324 -0.746832 0
M  V30 33 H -5.576067 -0.249225 0.208305 0
M  V30 END ATOM
M  V30 BEGIN BOND
M  V30 1 2 1 2
M  V30 2 1 2 3
M  V30 3 2 3 4
M  V30 4 1 4 5
M  V30 5 1 5 6
M  V30 6 1 6 7
M  V30 7 1 7 8
M  V30 8 1 8 9
M  V30 9 2 9 10
M  V30 10 1 9 11
M  V30 11 1 11 12
M  V30 12 2 12 13
M  V30 13 1 13 14
M  V30 14 2 14 15
M  V30 15 1 15 16
M  V30 16 2 16 17
M  V30 17 1 4 18
M  V30 18 2 18 19
M  V30 19 1 19 1
M  V30 20 1 10 5
M  V30 21 1 17 12
M  V30 22 1 17 8
M  V30 23 1 1 20
M  V30 24 1 2 21
M  V30 25 1 3 22
M  V30 26 1 5 23 CFG=3
M  V30 27 1 6 24
M  V30 28 1 6 25
M  V30 29 1 7 26
M  V30 30 1 7 27
M  V30 31 1 13 28
M  V30 32 1 14 29
M  V30 33 1 15 30
M  V30 34 1 16 31
M  V30 35 1 18 32
M  V30 36 1 19 33
M  V30 END BOND
M  V30 END CTAB
M  END
>  <catalyst_id>  (1) 
ZMYZJAQMQBHNLH_ZDUSSCGKSA_NONE

>  <source_smiles>  (1) 
c1ccc([C@@H]2CCN3C(=N2)Sc2ccccc23)cc1

>  <axial_configuration>  (1) 
none

>  <inchikey>  (1) 
ZMYZJAQMQBHNLH-ZDUSSCGKSA-N

>  <build_source>  (1) 
smiles

>  <rdkit_version>  (1) 
2025.09.6

>  <random_seed>  (1) 
42

>  <generated_at>  (1) 
2026-05-19T12:37:18

$$$$
