catalyst168
     RDKit          3D

  0  0  0  0  0  0  0  0  0  0999 V3000
M  V30 BEGIN CTAB
M  V30 COUNTS 26 26 0 0 0
M  V30 BEGIN ATOM
M  V30 1 C -2.421080 2.279950 -0.379299 0
M  V30 2 O -1.341354 1.473745 -0.835738 0
M  V30 3 C -1.105598 0.341325 0.010212 0 CFG=1
M  V30 4 C -2.123661 -0.784529 -0.244225 0
M  V30 5 N -1.337214 -2.007104 -0.448973 0
M  V30 6 C -0.132801 -1.536360 -1.148397 0
M  V30 7 C 0.257658 -0.281455 -0.359906 0 CFG=2
M  V30 8 N 0.972224 -0.670225 0.891972 0
M  V30 9 S 2.663334 -0.767041 0.828234 0
M  V30 10 O 3.012756 -1.568988 1.987595 0
M  V30 11 O 2.993716 -1.249411 -0.500994 0
M  V30 12 C 3.248042 0.996235 1.064108 0
M  V30 13 F 2.806839 1.811859 0.063409 0
M  V30 14 F 2.795328 1.532979 2.233166 0
M  V30 15 F 4.606931 1.089162 1.081555 0
M  V30 16 H -2.542388 3.114717 -1.074841 0
M  V30 17 H -3.353595 1.708929 -0.355951 0
M  V30 18 H -2.201908 2.684184 0.613584 0
M  V30 19 H -1.111700 0.660154 1.060533 0
M  V30 20 H -2.736508 -0.576568 -1.129240 0
M  V30 21 H -2.794660 -0.910095 0.611062 0
M  V30 22 H -1.849782 -2.666993 -1.034273 0
M  V30 23 H -0.374648 -1.281505 -2.187256 0
M  V30 24 H 0.638476 -2.311115 -1.148304 0
M  V30 25 H 0.867040 0.407363 -0.953599 0
M  V30 26 H 0.564554 -1.489213 1.355569 0
M  V30 END ATOM
M  V30 BEGIN BOND
M  V30 1 1 1 2
M  V30 2 1 2 3
M  V30 3 1 3 4
M  V30 4 1 4 5
M  V30 5 1 5 6
M  V30 6 1 6 7
M  V30 7 1 7 8
M  V30 8 1 8 9
M  V30 9 2 9 10
M  V30 10 2 9 11
M  V30 11 1 9 12
M  V30 12 1 12 13
M  V30 13 1 12 14
M  V30 14 1 12 15
M  V30 15 1 7 3
M  V30 16 1 1 16
M  V30 17 1 1 17
M  V30 18 1 1 18
M  V30 19 1 3 19 CFG=1
M  V30 20 1 4 20
M  V30 21 1 4 21
M  V30 22 1 5 22
M  V30 23 1 6 23
M  V30 24 1 6 24
M  V30 25 1 7 25 CFG=3
M  V30 26 1 8 26
M  V30 END BOND
M  V30 END CTAB
M  END
>  <catalyst_id>  (1) 
LDHKGQUGAARGMG_WHFBIAKZSA_NONE

>  <source_smiles>  (1) 
CO[C@H]1CNC[C@@H]1NS(=O)(=O)C(F)(F)F

>  <axial_configuration>  (1) 
none

>  <inchikey>  (1) 
LDHKGQUGAARGMG-WHFBIAKZSA-N

>  <build_source>  (1) 
smiles

>  <rdkit_version>  (1) 
2025.09.6

>  <random_seed>  (1) 
42

>  <generated_at>  (1) 
2026-05-19T12:31:51

$$$$
