catalyst107
     RDKit          3D

  0  0  0  0  0  0  0  0  0  0999 V3000
M  V30 BEGIN CTAB
M  V30 COUNTS 65 69 0 0 0
M  V30 BEGIN ATOM
M  V30 1 C -6.114482 -2.935093 -1.320453 0
M  V30 2 C -4.998662 -2.221673 -1.120638 0
M  V30 3 C -3.945194 -2.572797 -0.096400 0 CFG=1
M  V30 4 C -2.541370 -2.744198 -0.735998 0
M  V30 5 N -1.527211 -1.845649 -0.118383 0
M  V30 6 C -1.438848 -2.171886 1.325696 0
M  V30 7 C -2.793370 -2.031646 2.036409 0
M  V30 8 C -3.844318 -1.519945 1.034831 0 CFG=1
M  V30 9 C -3.308336 -0.181171 0.494328 0
M  V30 10 C -2.006157 -0.427250 -0.300518 0 CFG=1
M  V30 11 C -0.880932 0.629356 0.014918 0 CFG=1
M  V30 12 N 0.410940 0.096311 -0.477264 0
M  V30 13 C 1.682405 0.472754 -0.061502 0
M  V30 14 S 1.995406 1.748352 0.969329 0
M  V30 15 N 2.611551 -0.342417 -0.699820 0
M  V30 16 C 3.987562 -0.552724 -0.471319 0
M  V30 17 C 4.730237 -1.091868 -1.529792 0
M  V30 18 C 6.103431 -1.359246 -1.398653 0
M  V30 19 C 6.891188 -1.897181 -2.568702 0
M  V30 20 F 7.950617 -2.664144 -2.190452 0
M  V30 21 F 6.143538 -2.678545 -3.397205 0
M  V30 22 F 7.401967 -0.905746 -3.347462 0
M  V30 23 C 6.732995 -1.082212 -0.177234 0
M  V30 24 C 6.000409 -0.579262 0.908333 0
M  V30 25 C 6.674700 -0.290064 2.228979 0
M  V30 26 F 5.875212 -0.537950 3.302880 0
M  V30 27 F 7.797095 -1.038205 2.424776 0
M  V30 28 F 7.067649 1.007425 2.338712 0
M  V30 29 C 4.627241 -0.320816 0.746620 0
M  V30 30 C -1.209489 1.976905 -0.624109 0
M  V30 31 C -1.067524 2.105770 -2.015521 0
M  V30 32 C -1.405514 3.298207 -2.619361 0
M  V30 33 N -1.880690 4.363100 -1.950706 0
M  V30 34 C -2.008995 4.268093 -0.618718 0
M  V30 35 C -2.487053 5.383980 0.054197 0
M  V30 36 C -2.657078 5.398357 1.438120 0
M  V30 37 C -2.339010 4.269569 2.174946 0
M  V30 38 C -1.858553 3.133190 1.522628 0
M  V30 39 C -1.686767 3.098378 0.114701 0
M  V30 40 H -6.837505 -2.635325 -2.073585 0
M  V30 41 H -6.338014 -3.826422 -0.742244 0
M  V30 42 H -4.833320 -1.338001 -1.734346 0
M  V30 43 H -4.216288 -3.532916 0.365919 0
M  V30 44 H -2.563334 -2.573588 -1.820223 0
M  V30 45 H -2.211229 -3.785010 -0.619000 0
M  V30 46 H -1.063264 -3.196085 1.444729 0
M  V30 47 H -0.691150 -1.536211 1.813974 0
M  V30 48 H -2.702272 -1.335404 2.878734 0
M  V30 49 H -3.104002 -2.998718 2.449530 0
M  V30 50 H -4.808745 -1.376911 1.534919 0
M  V30 51 H -3.140298 0.494870 1.339481 0
M  V30 52 H -4.052268 0.300917 -0.150071 0
M  V30 53 H -2.242025 -0.327816 -1.369960 0
M  V30 54 H -0.770501 0.710543 1.098509 0
M  V30 55 H 0.327378 -0.898946 -0.669358 0
M  V30 56 H 2.258505 -0.708190 -1.575538 0
M  V30 57 H 4.247183 -1.294816 -2.485247 0
M  V30 58 H 7.802097 -1.271600 -0.065306 0
M  V30 59 H 4.072769 0.032602 1.611671 0
M  V30 60 H -0.695322 1.287188 -2.623236 0
M  V30 61 H -1.304078 3.432509 -3.692251 0
M  V30 62 H -2.730731 6.275264 -0.520036 0
M  V30 63 H -3.027955 6.292560 1.931316 0
M  V30 64 H -2.454108 4.271172 3.255803 0
M  V30 65 H -1.606113 2.280275 2.144865 0
M  V30 END ATOM
M  V30 BEGIN BOND
M  V30 1 2 1 2
M  V30 2 1 2 3
M  V30 3 1 3 4
M  V30 4 1 4 5
M  V30 5 1 5 6
M  V30 6 1 6 7
M  V30 7 1 7 8
M  V30 8 1 8 9
M  V30 9 1 9 10
M  V30 10 1 10 11
M  V30 11 1 11 12
M  V30 12 1 12 13
M  V30 13 2 13 14
M  V30 14 1 13 15
M  V30 15 1 15 16
M  V30 16 2 16 17
M  V30 17 1 17 18
M  V30 18 1 18 19
M  V30 19 1 19 20
M  V30 20 1 19 21
M  V30 21 1 19 22
M  V30 22 2 18 23
M  V30 23 1 23 24
M  V30 24 1 24 25
M  V30 25 1 25 26
M  V30 26 1 25 27
M  V30 27 1 25 28
M  V30 28 2 24 29
M  V30 29 1 11 30
M  V30 30 2 30 31
M  V30 31 1 31 32
M  V30 32 2 32 33
M  V30 33 1 33 34
M  V30 34 2 34 35
M  V30 35 1 35 36
M  V30 36 2 36 37
M  V30 37 1 37 38
M  V30 38 2 38 39
M  V30 39 1 8 3
M  V30 40 1 29 16
M  V30 41 1 39 30
M  V30 42 1 10 5
M  V30 43 1 39 34
M  V30 44 1 1 40
M  V30 45 1 1 41
M  V30 46 1 2 42
M  V30 47 1 3 43 CFG=1
M  V30 48 1 4 44
M  V30 49 1 4 45
M  V30 50 1 6 46
M  V30 51 1 6 47
M  V30 52 1 7 48
M  V30 53 1 7 49
M  V30 54 1 8 50 CFG=1
M  V30 55 1 9 51
M  V30 56 1 9 52
M  V30 57 1 10 53 CFG=3
M  V30 58 1 11 54 CFG=1
M  V30 59 1 12 55
M  V30 60 1 15 56
M  V30 61 1 17 57
M  V30 62 1 23 58
M  V30 63 1 29 59
M  V30 64 1 31 60
M  V30 65 1 32 61
M  V30 66 1 35 62
M  V30 67 1 36 63
M  V30 68 1 37 64
M  V30 69 1 38 65
M  V30 END BOND
M  V30 END CTAB
M  END
>  <catalyst_id>  (1) 
IIQBCCXHYIEQTC_SEMUBUJISA_NONE

>  <source_smiles>  (1) 
C=C[C@H]1CN2CC[C@H]1C[C@H]2[C@@H](NC(=S)Nc1cc(C(F)(F)F)cc(C(F)(F)F)c1)c1ccnc2ccccc12

>  <axial_configuration>  (1) 
none

>  <inchikey>  (1) 
IIQBCCXHYIEQTC-SEMUBUJISA-N

>  <build_source>  (1) 
smiles

>  <rdkit_version>  (1) 
2025.09.6

>  <random_seed>  (1) 
42

>  <generated_at>  (1) 
2026-05-19T12:30:06

$$$$
