catalyst330
     RDKit          3D

  0  0  0  0  0  0  0  0  0  0999 V3000
M  V30 BEGIN CTAB
M  V30 COUNTS 40 41 0 0 0
M  V30 BEGIN ATOM
M  V30 1 C -1.511647 -2.325698 1.279995 0
M  V30 2 N -0.808379 -1.593286 0.250766 0
M  V30 3 C 0.330020 -2.144777 -0.331577 0
M  V30 4 O 0.967191 -3.109301 0.060335 0
M  V30 5 C 0.587480 -1.347228 -1.592496 0 CFG=2
M  V30 6 C 2.070721 -1.004682 -1.796597 0
M  V30 7 C 2.646361 -0.005062 -0.815438 0
M  V30 8 C 2.727719 1.353786 -1.153294 0
M  V30 9 C 3.230415 2.281989 -0.240553 0
M  V30 10 C 3.658529 1.862071 1.017027 0
M  V30 11 C 3.586813 0.513865 1.361618 0
M  V30 12 C 3.084605 -0.416123 0.450224 0
M  V30 13 N -0.327525 -0.188157 -1.477480 0
M  V30 14 C -1.449574 -0.652847 -0.640439 0 CFG=2
M  V30 15 C -2.248510 0.540027 -0.006377 0
M  V30 16 C -1.444760 1.282751 1.078764 0
M  V30 17 C -3.585524 0.059503 0.597799 0
M  V30 18 C -2.618205 1.561541 -1.112294 0
M  V30 19 H -1.758489 -1.653547 2.102683 0
M  V30 20 H -0.889609 -3.131066 1.681338 0
M  V30 21 H -2.417319 -2.765670 0.853584 0
M  V30 22 H 0.250699 -1.970459 -2.430922 0
M  V30 23 H 2.675525 -1.920066 -1.753131 0
M  V30 24 H 2.205551 -0.612267 -2.813404 0
M  V30 25 H 2.394716 1.697927 -2.130461 0
M  V30 26 H 3.289568 3.332825 -0.511579 0
M  V30 27 H 4.051760 2.584207 1.727523 0
M  V30 28 H 3.923520 0.183431 2.340850 0
M  V30 29 H 3.038528 -1.465602 0.737102 0
M  V30 30 H 0.162855 0.521879 -0.933363 0
M  V30 31 H -2.126222 -1.231010 -1.285076 0
M  V30 32 H -1.163100 0.618963 1.901635 0
M  V30 33 H -0.527263 1.725674 0.678253 0
M  V30 34 H -2.034909 2.100084 1.509811 0
M  V30 35 H -4.222736 0.909953 0.869071 0
M  V30 36 H -4.144893 -0.552793 -0.118194 0
M  V30 37 H -3.452640 -0.522995 1.510682 0
M  V30 38 H -3.251685 2.363717 -0.715586 0
M  V30 39 H -1.731478 2.041571 -1.540233 0
M  V30 40 H -3.168107 1.076873 -1.927042 0
M  V30 END ATOM
M  V30 BEGIN BOND
M  V30 1 1 1 2
M  V30 2 1 2 3
M  V30 3 2 3 4
M  V30 4 1 3 5
M  V30 5 1 5 6
M  V30 6 1 6 7
M  V30 7 2 7 8
M  V30 8 1 8 9
M  V30 9 2 9 10
M  V30 10 1 10 11
M  V30 11 2 11 12
M  V30 12 1 5 13
M  V30 13 1 13 14
M  V30 14 1 14 15
M  V30 15 1 15 16
M  V30 16 1 15 17
M  V30 17 1 15 18
M  V30 18 1 14 2
M  V30 19 1 12 7
M  V30 20 1 1 19
M  V30 21 1 1 20
M  V30 22 1 1 21
M  V30 23 1 5 22 CFG=3
M  V30 24 1 6 23
M  V30 25 1 6 24
M  V30 26 1 8 25
M  V30 27 1 9 26
M  V30 28 1 10 27
M  V30 29 1 11 28
M  V30 30 1 12 29
M  V30 31 1 13 30
M  V30 32 1 14 31 CFG=3
M  V30 33 1 16 32
M  V30 34 1 16 33
M  V30 35 1 16 34
M  V30 36 1 17 35
M  V30 37 1 17 36
M  V30 38 1 17 37
M  V30 39 1 18 38
M  V30 40 1 18 39
M  V30 41 1 18 40
M  V30 END BOND
M  V30 END CTAB
M  END
>  <catalyst_id>  (1) 
SKHPYKHVYFTIOI_JSGCOSHPSA_NONE

>  <source_smiles>  (1) 
CN1C(=O)[C@H](Cc2ccccc2)N[C@@H]1C(C)(C)C

>  <axial_configuration>  (1) 
none

>  <inchikey>  (1) 
SKHPYKHVYFTIOI-JSGCOSHPSA-N

>  <build_source>  (1) 
smiles

>  <rdkit_version>  (1) 
2025.09.6

>  <random_seed>  (1) 
42

>  <generated_at>  (1) 
2026-05-19T12:30:03

$$$$
