catalyst389
     RDKit          3D

  0  0  0  0  0  0  0  0  0  0999 V3000
M  V30 BEGIN CTAB
M  V30 COUNTS 85 91 0 0 0
M  V30 BEGIN ATOM
M  V30 1 C -2.279067 -6.415821 -0.542338 0
M  V30 2 C -2.090282 -5.107398 -0.327024 0
M  V30 3 C -2.738524 -4.335147 0.798285 0 CFG=1
M  V30 4 C -1.689544 -3.635613 1.702511 0
M  V30 5 N -1.979944 -2.186902 1.880845 0
M  V30 6 C -3.340638 -2.062469 2.450976 0
M  V30 7 C -4.414754 -2.645583 1.521751 0
M  V30 8 C -3.736910 -3.267259 0.287652 0 CFG=1
M  V30 9 C -2.991894 -2.119430 -0.417605 0
M  V30 10 C -1.910298 -1.537101 0.526983 0 CFG=1
M  V30 11 C -1.899615 0.029863 0.602409 0 CFG=2
M  V30 12 O -3.234338 0.541848 0.742875 0
M  V30 13 C -3.287408 1.744908 1.507059 0
M  V30 14 C -4.674307 2.326015 1.364650 0
M  V30 15 C -5.678345 1.809099 2.205715 0
M  V30 16 C -6.984957 2.275803 2.130001 0
M  V30 17 C -7.312716 3.261260 1.204705 0
M  V30 18 C -6.343806 3.788604 0.338778 0
M  V30 19 C -6.705816 4.774948 -0.594084 0
M  V30 20 C -5.768136 5.313177 -1.472584 0
M  V30 21 C -4.454228 4.870431 -1.429276 0
M  V30 22 C -4.078396 3.891263 -0.505736 0
M  V30 23 C -5.003956 3.324142 0.402756 0
M  V30 24 C -1.237086 0.625315 -0.640945 0
M  V30 25 C -2.037044 1.003150 -1.728882 0
M  V30 26 C -1.437392 1.549264 -2.843534 0
M  V30 27 N -0.109652 1.738351 -2.957133 0
M  V30 28 C 0.673179 1.362497 -1.935763 0
M  V30 29 C 2.039054 1.557504 -2.066939 0
M  V30 30 C 2.945057 1.184923 -1.068922 0
M  V30 31 C 2.486352 0.580577 0.093836 0
M  V30 32 N 3.317301 0.173696 1.157285 0
M  V30 33 C 4.677447 -0.002153 1.238311 0
M  V30 34 S 5.317554 -0.081785 2.782766 0
M  V30 35 N 5.328356 -0.207966 0.048195 0
M  V30 36 C 6.699274 -0.175022 -0.281571 0
M  V30 37 C 7.660263 0.531974 0.442319 0
M  V30 38 C 9.008080 0.544598 0.040852 0
M  V30 39 C 10.024339 1.336446 0.830095 0
M  V30 40 F 10.013956 2.656911 0.500095 0
M  V30 41 F 9.820365 1.281204 2.174167 0
M  V30 42 F 11.303169 0.911571 0.629651 0
M  V30 43 C 9.379888 -0.144382 -1.123493 0
M  V30 44 C 8.427448 -0.845432 -1.876572 0
M  V30 45 C 8.821295 -1.561375 -3.146246 0
M  V30 46 F 10.110244 -1.998783 -3.135646 0
M  V30 47 F 8.055884 -2.659781 -3.395870 0
M  V30 48 F 8.702372 -0.764358 -4.242594 0
M  V30 49 C 7.088116 -0.838338 -1.452178 0
M  V30 50 C 1.106228 0.409240 0.258000 0
M  V30 51 C 0.173863 0.788265 -0.744469 0
M  V30 52 H -2.928302 -7.013538 0.090087 0
M  V30 53 H -1.784556 -6.919751 -1.367548 0
M  V30 54 H -1.426607 -4.562730 -0.995849 0
M  V30 55 H -3.300588 -5.041123 1.426659 0
M  V30 56 H -1.677690 -4.120468 2.687813 0
M  V30 57 H -0.669064 -3.756968 1.316102 0
M  V30 58 H -3.566987 -1.019140 2.690600 0
M  V30 59 H -3.374372 -2.579687 3.418866 0
M  V30 60 H -5.000395 -3.403889 2.054798 0
M  V30 61 H -5.111944 -1.857328 1.212984 0
M  V30 62 H -4.487603 -3.706903 -0.378587 0
M  V30 63 H -3.721769 -1.362707 -0.725014 0
M  V30 64 H -2.519694 -2.479509 -1.338984 0
M  V30 65 H -0.931483 -1.826055 0.117831 0
M  V30 66 H -1.329572 0.329134 1.490746 0
M  V30 67 H -3.089349 1.509932 2.560499 0
M  V30 68 H -2.514351 2.454418 1.197070 0
M  V30 69 H -5.438077 1.027658 2.923902 0
M  V30 70 H -7.749049 1.869344 2.786955 0
M  V30 71 H -8.341364 3.612672 1.159155 0
M  V30 72 H -7.732005 5.133259 -0.644413 0
M  V30 73 H -6.065628 6.075114 -2.187820 0
M  V30 74 H -3.715796 5.284326 -2.111219 0
M  V30 75 H -3.038384 3.578671 -0.514635 0
M  V30 76 H -3.117394 0.886770 -1.706809 0
M  V30 77 H -2.027916 1.861956 -3.700133 0
M  V30 78 H 2.413365 2.028430 -2.974184 0
M  V30 79 H 3.991447 1.428659 -1.221682 0
M  V30 80 H 2.859923 0.052375 2.056739 0
M  V30 81 H 4.727399 -0.635958 -0.646965 0
M  V30 82 H 7.383686 1.119607 1.314167 0
M  V30 83 H 10.421389 -0.129131 -1.450050 0
M  V30 84 H 6.348652 -1.376103 -2.045232 0
M  V30 85 H 0.754048 -0.056083 1.175729 0
M  V30 END ATOM
M  V30 BEGIN BOND
M  V30 1 2 1 2
M  V30 2 1 2 3
M  V30 3 1 3 4
M  V30 4 1 4 5
M  V30 5 1 5 6
M  V30 6 1 6 7
M  V30 7 1 7 8
M  V30 8 1 8 9
M  V30 9 1 9 10
M  V30 10 1 10 11
M  V30 11 1 11 12
M  V30 12 1 12 13
M  V30 13 1 13 14
M  V30 14 2 14 15
M  V30 15 1 15 16
M  V30 16 2 16 17
M  V30 17 1 17 18
M  V30 18 2 18 19
M  V30 19 1 19 20
M  V30 20 2 20 21
M  V30 21 1 21 22
M  V30 22 2 22 23
M  V30 23 1 11 24
M  V30 24 2 24 25
M  V30 25 1 25 26
M  V30 26 2 26 27
M  V30 27 1 27 28
M  V30 28 2 28 29
M  V30 29 1 29 30
M  V30 30 2 30 31
M  V30 31 1 31 32
M  V30 32 1 32 33
M  V30 33 2 33 34
M  V30 34 1 33 35
M  V30 35 1 35 36
M  V30 36 2 36 37
M  V30 37 1 37 38
M  V30 38 1 38 39
M  V30 39 1 39 40
M  V30 40 1 39 41
M  V30 41 1 39 42
M  V30 42 2 38 43
M  V30 43 1 43 44
M  V30 44 1 44 45
M  V30 45 1 45 46
M  V30 46 1 45 47
M  V30 47 1 45 48
M  V30 48 2 44 49
M  V30 49 1 31 50
M  V30 50 2 50 51
M  V30 51 1 8 3
M  V30 52 1 23 14
M  V30 53 1 51 24
M  V30 54 1 10 5
M  V30 55 1 23 18
M  V30 56 1 51 28
M  V30 57 1 49 36
M  V30 58 1 1 52
M  V30 59 1 1 53
M  V30 60 1 2 54
M  V30 61 1 3 55 CFG=1
M  V30 62 1 4 56
M  V30 63 1 4 57
M  V30 64 1 6 58
M  V30 65 1 6 59
M  V30 66 1 7 60
M  V30 67 1 7 61
M  V30 68 1 8 62 CFG=3
M  V30 69 1 9 63
M  V30 70 1 9 64
M  V30 71 1 10 65 CFG=3
M  V30 72 1 11 66 CFG=1
M  V30 73 1 13 67
M  V30 74 1 13 68
M  V30 75 1 15 69
M  V30 76 1 16 70
M  V30 77 1 17 71
M  V30 78 1 19 72
M  V30 79 1 20 73
M  V30 80 1 21 74
M  V30 81 1 22 75
M  V30 82 1 25 76
M  V30 83 1 26 77
M  V30 84 1 29 78
M  V30 85 1 30 79
M  V30 86 1 32 80
M  V30 87 1 35 81
M  V30 88 1 37 82
M  V30 89 1 43 83
M  V30 90 1 49 84
M  V30 91 1 50 85
M  V30 END BOND
M  V30 END CTAB
M  END
>  <catalyst_id>  (1) 
WVWDGANROSBGIU_MKDOTMSLSA_NONE

>  <source_smiles>  (1) 
C=C[C@H]1CN2CC[C@H]1C[C@H]2[C@H](OCc1cccc2ccccc12)c1ccnc2ccc(NC(=S)Nc3cc(C(F)(F)F)cc(C(F)(F)F)c3)cc12

>  <axial_configuration>  (1) 
none

>  <inchikey>  (1) 
WVWDGANROSBGIU-MKDOTMSLSA-N

>  <build_source>  (1) 
smiles

>  <rdkit_version>  (1) 
2025.09.6

>  <random_seed>  (1) 
42

>  <generated_at>  (1) 
2026-05-19T12:33:46

$$$$
