catalyst305
     RDKit          3D

  0  0  0  0  0  0  0  0  0  0999 V3000
M  V30 BEGIN CTAB
M  V30 COUNTS 63 68 0 0 0
M  V30 BEGIN ATOM
M  V30 1 C 2.882483 -3.482054 0.521200 0
M  V30 2 C 3.832566 -2.796842 -0.128623 0
M  V30 3 C 3.722829 -1.985852 -1.404694 0 CFG=1
M  V30 4 C 2.361311 -1.987042 -2.153858 0
M  V30 5 N 1.906920 -0.614922 -2.515370 0
M  V30 6 C 2.971424 0.023213 -3.323389 0
M  V30 7 C 4.273886 0.178952 -2.525695 0
M  V30 8 C 4.129615 -0.509011 -1.157030 0 CFG=1
M  V30 9 C 2.994247 0.199682 -0.396521 0
M  V30 10 C 1.711394 0.202341 -1.262893 0 CFG=2
M  V30 11 C 0.436793 -0.233041 -0.446301 0 CFG=2
M  V30 12 N -0.630448 -0.598107 -1.411639 0
M  V30 13 S -1.741041 -1.780914 -0.959409 0
M  V30 14 O -2.445544 -2.122808 -2.180324 0
M  V30 15 O -1.019842 -2.801326 -0.233822 0
M  V30 16 C -2.877298 -0.869249 0.043915 0
M  V30 17 C -3.694430 0.060894 -0.628557 0
M  V30 18 C -4.591583 0.842394 0.082743 0
M  V30 19 C -4.677402 0.687422 1.460006 0
M  V30 20 C -3.873192 -0.252045 2.128600 0
M  V30 21 C -3.978019 -0.394408 3.519092 0
M  V30 22 C -3.192501 -1.320784 4.187856 0
M  V30 23 C -2.318170 -2.073651 3.437875 0
M  V30 24 N -2.182832 -1.951104 2.100191 0
M  V30 25 C -2.948509 -1.062001 1.425630 0
M  V30 26 C -0.002988 0.818635 0.564049 0
M  V30 27 C 0.196853 0.519533 1.920103 0
M  V30 28 C -0.198728 1.431667 2.875420 0
M  V30 29 N -0.765887 2.616142 2.586176 0
M  V30 30 C -0.972454 2.919114 1.295840 0
M  V30 31 C -1.574315 4.138463 1.016910 0
M  V30 32 C -1.842789 4.551552 -0.287912 0
M  V30 33 C -1.502973 3.726453 -1.347122 0
M  V30 34 C -0.895342 2.496717 -1.093254 0
M  V30 35 C -0.612196 2.061815 0.226729 0
M  V30 36 H 1.848135 -3.540027 0.198000 0
M  V30 37 H 3.126145 -4.027385 1.429322 0
M  V30 38 H 4.836160 -2.826235 0.298368 0
M  V30 39 H 4.465660 -2.420897 -2.089512 0
M  V30 40 H 2.466911 -2.571888 -3.077798 0
M  V30 41 H 1.565697 -2.495046 -1.606170 0
M  V30 42 H 3.152965 -0.568233 -4.229693 0
M  V30 43 H 2.631034 1.003515 -3.679377 0
M  V30 44 H 5.107926 -0.261871 -3.084324 0
M  V30 45 H 4.503309 1.242314 -2.386526 0
M  V30 46 H 5.069641 -0.437582 -0.598029 0
M  V30 47 H 2.833700 -0.287144 0.571200 0
M  V30 48 H 3.287685 1.235032 -0.181874 0
M  V30 49 H 1.546753 1.234035 -1.599357 0
M  V30 50 H 0.719523 -1.144006 0.094104 0
M  V30 51 H -0.254874 -0.789813 -2.347894 0
M  V30 52 H -3.613821 0.183712 -1.707194 0
M  V30 53 H -5.213048 1.571826 -0.429657 0
M  V30 54 H -5.377222 1.309087 2.015041 0
M  V30 55 H -4.674690 0.216707 4.088168 0
M  V30 56 H -3.264198 -1.450223 5.261221 0
M  V30 57 H -1.678521 -2.820823 3.898748 0
M  V30 58 H 0.630927 -0.425304 2.235518 0
M  V30 59 H -0.070577 1.224263 3.933617 0
M  V30 60 H -1.845378 4.788275 1.846129 0
M  V30 61 H -2.316535 5.512571 -0.467772 0
M  V30 62 H -1.709974 4.031614 -2.369545 0
M  V30 63 H -0.655171 1.873696 -1.950636 0
M  V30 END ATOM
M  V30 BEGIN BOND
M  V30 1 2 1 2
M  V30 2 1 2 3
M  V30 3 1 3 4
M  V30 4 1 4 5
M  V30 5 1 5 6
M  V30 6 1 6 7
M  V30 7 1 7 8
M  V30 8 1 8 9
M  V30 9 1 9 10
M  V30 10 1 10 11
M  V30 11 1 11 12
M  V30 12 1 12 13
M  V30 13 2 13 14
M  V30 14 2 13 15
M  V30 15 1 13 16
M  V30 16 2 16 17
M  V30 17 1 17 18
M  V30 18 2 18 19
M  V30 19 1 19 20
M  V30 20 2 20 21
M  V30 21 1 21 22
M  V30 22 2 22 23
M  V30 23 1 23 24
M  V30 24 2 24 25
M  V30 25 1 11 26
M  V30 26 2 26 27
M  V30 27 1 27 28
M  V30 28 2 28 29
M  V30 29 1 29 30
M  V30 30 2 30 31
M  V30 31 1 31 32
M  V30 32 2 32 33
M  V30 33 1 33 34
M  V30 34 2 34 35
M  V30 35 1 8 3
M  V30 36 1 25 16
M  V30 37 1 35 26
M  V30 38 1 10 5
M  V30 39 1 25 20
M  V30 40 1 35 30
M  V30 41 1 1 36
M  V30 42 1 1 37
M  V30 43 1 2 38
M  V30 44 1 3 39 CFG=3
M  V30 45 1 4 40
M  V30 46 1 4 41
M  V30 47 1 6 42
M  V30 48 1 6 43
M  V30 49 1 7 44
M  V30 50 1 7 45
M  V30 51 1 8 46 CFG=1
M  V30 52 1 9 47
M  V30 53 1 9 48
M  V30 54 1 10 49 CFG=3
M  V30 55 1 11 50 CFG=1
M  V30 56 1 12 51
M  V30 57 1 17 52
M  V30 58 1 18 53
M  V30 59 1 19 54
M  V30 60 1 21 55
M  V30 61 1 22 56
M  V30 62 1 23 57
M  V30 63 1 27 58
M  V30 64 1 28 59
M  V30 65 1 31 60
M  V30 66 1 32 61
M  V30 67 1 33 62
M  V30 68 1 34 63
M  V30 END BOND
M  V30 END CTAB
M  END
>  <catalyst_id>  (1) 
RNPQJTUCXSVJMB_CNTAQBQQSA_NONE

>  <source_smiles>  (1) 
C=C[C@H]1CN2CC[C@H]1C[C@@H]2[C@H](NS(=O)(=O)c1cccc2cccnc12)c1ccnc2ccccc12

>  <axial_configuration>  (1) 
none

>  <inchikey>  (1) 
RNPQJTUCXSVJMB-CNTAQBQQSA-N

>  <build_source>  (1) 
smiles

>  <rdkit_version>  (1) 
2025.09.6

>  <random_seed>  (1) 
42

>  <generated_at>  (1) 
2026-05-19T12:33:37

$$$$
