catalyst296
     RDKit          3D

  0  0  0  0  0  0  0  0  0  0999 V3000
M  V30 BEGIN CTAB
M  V30 COUNTS 138 145 0 0 0
M  V30 BEGIN ATOM
M  V30 1 C 6.360582 0.836155 -0.206533 0
M  V30 2 N 4.926745 1.064395 -0.040848 0
M  V30 3 C 4.592050 2.490259 -0.037408 0
M  V30 4 C 4.275950 3.005433 -1.426970 0
M  V30 5 C 2.951988 2.975269 -1.895112 0
M  V30 6 C 2.619537 3.474069 -3.156215 0
M  V30 7 C 3.641459 3.909991 -4.003645 0
M  V30 8 C 4.978279 3.926637 -3.571521 0
M  V30 9 C 6.067534 4.444730 -4.476653 0
M  V30 10 F 7.274228 3.852235 -4.256685 0
M  V30 11 F 6.273187 5.781477 -4.320224 0
M  V30 12 F 5.797790 4.260150 -5.799094 0
M  V30 13 C 5.279919 3.496696 -2.269979 0
M  V30 14 N 1.299008 3.532254 -3.645439 0
M  V30 15 C 0.083748 3.562527 -2.991902 0
M  V30 16 S -1.246891 3.222995 -3.943692 0
M  V30 17 N 0.134393 3.958451 -1.677303 0
M  V30 18 C -0.817312 4.058086 -0.638366 0
M  V30 19 C -2.151288 3.664639 -0.707987 0
M  V30 20 C -3.014265 3.793535 0.398068 0
M  V30 21 C -2.522117 4.338453 1.589349 0
M  V30 22 C -1.180820 4.722492 1.695369 0
M  V30 23 C -0.647683 5.305416 2.979049 0
M  V30 24 F -0.780592 6.658616 3.030174 0
M  V30 25 F -1.275332 4.822336 4.087420 0
M  V30 26 F 0.678779 5.052346 3.166339 0
M  V30 27 C -0.345663 4.585887 0.573819 0
M  V30 28 C -4.470912 3.386442 0.284375 0
M  V30 29 N -4.674482 1.987061 -0.122572 0
M  V30 30 C -6.025426 1.803764 -0.640515 0
M  V30 31 C -4.227813 0.971453 0.884720 0 CFG=1
M  V30 32 C -4.937776 1.112829 2.245450 0
M  V30 33 C -4.221998 1.610750 3.349195 0
M  V30 34 C -4.829689 1.749021 4.598283 0
M  V30 35 C -6.161859 1.384227 4.768462 0
M  V30 36 C -6.883565 0.874466 3.692368 0
M  V30 37 C -6.276031 0.735811 2.442089 0
M  V30 38 C -4.223656 -0.559158 0.368704 0 CFG=2
M  V30 39 C -3.693561 -1.494308 1.473898 0
M  V30 40 C -2.346256 -1.443495 1.873082 0
M  V30 41 C -1.858035 -2.312553 2.848954 0
M  V30 42 C -2.709036 -3.243476 3.439291 0
M  V30 43 C -4.046658 -3.307676 3.053544 0
M  V30 44 C -4.537217 -2.440946 2.075416 0
M  V30 45 N -3.483931 -0.928127 -0.868924 0
M  V30 46 C -2.975532 0.146862 -1.700250 0
M  V30 47 C -4.163516 -1.975514 -1.641287 0
M  V30 48 C -3.174014 -2.840957 -2.392454 0
M  V30 49 C -2.294414 -3.661213 -1.667622 0
M  V30 50 C -1.303706 -4.395586 -2.314996 0
M  V30 51 C -1.187166 -4.307232 -3.704722 0
M  V30 52 C -2.077964 -3.520445 -4.455916 0
M  V30 53 C -1.941485 -3.463555 -5.956021 0
M  V30 54 F -2.806608 -2.598223 -6.554348 0
M  V30 55 F -0.695692 -3.078162 -6.351055 0
M  V30 56 F -2.158812 -4.673332 -6.543041 0
M  V30 57 C -3.071797 -2.790244 -3.788008 0
M  V30 58 N -0.325604 -5.123033 -1.613725 0
M  V30 59 C -0.373135 -5.659848 -0.352023 0
M  V30 60 S -1.706784 -6.350622 0.386942 0
M  V30 61 N 0.833901 -5.757367 0.295494 0
M  V30 62 C 1.970234 -4.926083 0.200389 0
M  V30 63 C 1.956968 -3.668519 -0.412906 0
M  V30 64 C 3.096092 -2.849583 -0.427062 0
M  V30 65 C 4.276100 -3.339887 0.150939 0
M  V30 66 C 4.309775 -4.591515 0.785160 0
M  V30 67 C 5.574632 -5.069586 1.452441 0
M  V30 68 F 6.698692 -4.741540 0.756547 0
M  V30 69 F 5.734875 -4.535766 2.694660 0
M  V30 70 F 5.620001 -6.421002 1.616374 0
M  V30 71 C 3.140543 -5.366157 0.823707 0
M  V30 72 C 3.063815 -1.474229 -1.065798 0
M  V30 73 N 2.336384 -0.411636 -0.367136 0
M  V30 74 C 0.891061 -0.449402 -0.533272 0
M  V30 75 C 2.801466 0.048123 0.958978 0 CFG=1
M  V30 76 C 2.288971 -0.812670 2.137005 0
M  V30 77 C 2.680189 -0.224313 3.490909 0
M  V30 78 C 4.184037 -0.023077 3.605357 0
M  V30 79 C 4.716364 0.860666 2.480866 0
M  V30 80 C 4.359884 0.288440 1.090429 0 CFG=2
M  V30 81 H 6.949784 1.262194 0.612208 0
M  V30 82 H 6.722877 1.265479 -1.145521 0
M  V30 83 H 6.580328 -0.235928 -0.265215 0
M  V30 84 H 5.389234 3.095255 0.415535 0
M  V30 85 H 3.707904 2.699320 0.577283 0
M  V30 86 H 2.195395 2.510025 -1.266131 0
M  V30 87 H 3.403501 4.272482 -5.002851 0
M  V30 88 H 6.311364 3.524733 -1.920333 0
M  V30 89 H 1.197439 3.531990 -4.655929 0
M  V30 90 H 1.033771 4.353924 -1.438492 0
M  V30 91 H -2.575107 3.240112 -1.609184 0
M  V30 92 H -3.187011 4.458979 2.444656 0
M  V30 93 H 0.694596 4.898013 0.662354 0
M  V30 94 H -5.014020 3.616131 1.209272 0
M  V30 95 H -4.898828 4.056652 -0.474832 0
M  V30 96 H -6.171831 2.431244 -1.527864 0
M  V30 97 H -6.205972 0.779047 -0.976246 0
M  V30 98 H -6.798315 2.080674 0.082670 0
M  V30 99 H -3.166824 1.188370 1.069648 0
M  V30 100 H -3.173361 1.880359 3.246479 0
M  V30 101 H -4.258484 2.131746 5.440056 0
M  V30 102 H -6.633958 1.486023 5.741881 0
M  V30 103 H -7.920029 0.576756 3.827885 0
M  V30 104 H -6.861436 0.318266 1.627941 0
M  V30 105 H -5.280848 -0.811324 0.210489 0
M  V30 106 H -1.667801 -0.735424 1.404255 0
M  V30 107 H -0.812412 -2.270795 3.139889 0
M  V30 108 H -2.328803 -3.926778 4.193480 0
M  V30 109 H -4.707011 -4.040536 3.509181 0
M  V30 110 H -5.581340 -2.514473 1.783047 0
M  V30 111 H -2.352428 0.827552 -1.115661 0
M  V30 112 H -2.306157 -0.238232 -2.477459 0
M  V30 113 H -3.770259 0.701213 -2.207148 0
M  V30 114 H -4.905758 -1.539355 -2.322258 0
M  V30 115 H -4.726100 -2.656469 -0.988517 0
M  V30 116 H -2.357554 -3.645272 -0.581465 0
M  V30 117 H -0.404674 -4.859205 -4.222757 0
M  V30 118 H -3.749493 -2.152473 -4.354460 0
M  V30 119 H 0.516447 -5.357883 -2.125326 0
M  V30 120 H 0.824145 -6.415148 1.068357 0
M  V30 121 H 1.044162 -3.274144 -0.847038 0
M  V30 122 H 5.182768 -2.736082 0.119979 0
M  V30 123 H 3.159270 -6.331896 1.326983 0
M  V30 124 H 2.651258 -1.590388 -2.078119 0
M  V30 125 H 4.092615 -1.150935 -1.259323 0
M  V30 126 H 0.621065 -0.560487 -1.589432 0
M  V30 127 H 0.438314 0.492441 -0.202735 0
M  V30 128 H 0.419839 -1.262353 0.024670 0
M  V30 129 H 2.338249 1.035783 1.096227 0
M  V30 130 H 1.197032 -0.892788 2.111813 0
M  V30 131 H 2.684546 -1.830476 2.075989 0
M  V30 132 H 2.168209 0.735204 3.634619 0
M  V30 133 H 2.337349 -0.890314 4.291061 0
M  V30 134 H 4.689575 -0.996290 3.579087 0
M  V30 135 H 4.420862 0.433305 4.573206 0
M  V30 136 H 4.303879 1.868824 2.604333 0
M  V30 137 H 5.803055 0.945938 2.593341 0
M  V30 138 H 4.813915 -0.707988 1.052039 0
M  V30 END ATOM
M  V30 BEGIN BOND
M  V30 1 1 1 2
M  V30 2 1 2 3
M  V30 3 1 3 4
M  V30 4 1 4 5
M  V30 5 2 5 6
M  V30 6 1 6 7
M  V30 7 2 7 8
M  V30 8 1 8 9
M  V30 9 1 9 10
M  V30 10 1 9 11
M  V30 11 1 9 12
M  V30 12 1 8 13
M  V30 13 1 6 14
M  V30 14 1 14 15
M  V30 15 2 15 16
M  V30 16 1 15 17
M  V30 17 1 17 18
M  V30 18 1 18 19
M  V30 19 2 19 20
M  V30 20 1 20 21
M  V30 21 2 21 22
M  V30 22 1 22 23
M  V30 23 1 23 24
M  V30 24 1 23 25
M  V30 25 1 23 26
M  V30 26 1 22 27
M  V30 27 1 20 28
M  V30 28 1 28 29
M  V30 29 1 29 30
M  V30 30 1 29 31
M  V30 31 1 31 32
M  V30 32 2 32 33
M  V30 33 1 33 34
M  V30 34 2 34 35
M  V30 35 1 35 36
M  V30 36 2 36 37
M  V30 37 1 31 38
M  V30 38 1 38 39
M  V30 39 2 39 40
M  V30 40 1 40 41
M  V30 41 2 41 42
M  V30 42 1 42 43
M  V30 43 2 43 44
M  V30 44 1 38 45
M  V30 45 1 45 46
M  V30 46 1 45 47
M  V30 47 1 47 48
M  V30 48 1 48 49
M  V30 49 2 49 50
M  V30 50 1 50 51
M  V30 51 2 51 52
M  V30 52 1 52 53
M  V30 53 1 53 54
M  V30 54 1 53 55
M  V30 55 1 53 56
M  V30 56 1 52 57
M  V30 57 1 50 58
M  V30 58 1 58 59
M  V30 59 2 59 60
M  V30 60 1 59 61
M  V30 61 1 61 62
M  V30 62 1 62 63
M  V30 63 2 63 64
M  V30 64 1 64 65
M  V30 65 2 65 66
M  V30 66 1 66 67
M  V30 67 1 67 68
M  V30 68 1 67 69
M  V30 69 1 67 70
M  V30 70 1 66 71
M  V30 71 1 64 72
M  V30 72 1 72 73
M  V30 73 1 73 74
M  V30 74 1 73 75
M  V30 75 1 75 76
M  V30 76 1 76 77
M  V30 77 1 77 78
M  V30 78 1 78 79
M  V30 79 1 79 80
M  V30 80 1 80 2
M  V30 81 2 13 4
M  V30 82 2 27 18
M  V30 83 1 37 32
M  V30 84 1 44 39
M  V30 85 2 57 48
M  V30 86 2 71 62
M  V30 87 1 80 75
M  V30 88 1 1 81
M  V30 89 1 1 82
M  V30 90 1 1 83
M  V30 91 1 3 84
M  V30 92 1 3 85
M  V30 93 1 5 86
M  V30 94 1 7 87
M  V30 95 1 13 88
M  V30 96 1 14 89
M  V30 97 1 17 90
M  V30 98 1 19 91
M  V30 99 1 21 92
M  V30 100 1 27 93
M  V30 101 1 28 94
M  V30 102 1 28 95
M  V30 103 1 30 96
M  V30 104 1 30 97
M  V30 105 1 30 98
M  V30 106 1 31 99 CFG=1
M  V30 107 1 33 100
M  V30 108 1 34 101
M  V30 109 1 35 102
M  V30 110 1 36 103
M  V30 111 1 37 104
M  V30 112 1 38 105 CFG=3
M  V30 113 1 40 106
M  V30 114 1 41 107
M  V30 115 1 42 108
M  V30 116 1 43 109
M  V30 117 1 44 110
M  V30 118 1 46 111
M  V30 119 1 46 112
M  V30 120 1 46 113
M  V30 121 1 47 114
M  V30 122 1 47 115
M  V30 123 1 49 116
M  V30 124 1 51 117
M  V30 125 1 57 118
M  V30 126 1 58 119
M  V30 127 1 61 120
M  V30 128 1 63 121
M  V30 129 1 65 122
M  V30 130 1 71 123
M  V30 131 1 72 124
M  V30 132 1 72 125
M  V30 133 1 74 126
M  V30 134 1 74 127
M  V30 135 1 74 128
M  V30 136 1 75 129 CFG=1
M  V30 137 1 76 130
M  V30 138 1 76 131
M  V30 139 1 77 132
M  V30 140 1 77 133
M  V30 141 1 78 134
M  V30 142 1 78 135
M  V30 143 1 79 136
M  V30 144 1 79 137
M  V30 145 1 80 138 CFG=1
M  V30 END BOND
M  V30 END CTAB
M  END
>  <catalyst_id>  (1) 
RFCORVRWLFCJNY_CFOCFGCLSA_NONE

>  <source_smiles>  (1) 
CN1Cc2cc(cc(C(F)(F)F)c2)NC(=S)Nc2cc(cc(C(F)(F)F)c2)CN(C)[C@@H](c2ccccc2)[C@H](c2ccccc2)N(C)Cc2cc(cc(C(F)(F)F)c2)NC(=S)Nc2cc(cc(C(F)(F)F)c2)CN(C)[C@H]2CCCC[C@@H]21

>  <axial_configuration>  (1) 
none

>  <inchikey>  (1) 
RFCORVRWLFCJNY-CFOCFGCLSA-N

>  <build_source>  (1) 
smiles

>  <rdkit_version>  (1) 
2025.09.6

>  <random_seed>  (1) 
42

>  <generated_at>  (1) 
2026-05-19T12:37:56

$$$$
