catalyst94
     RDKit          3D

  0  0  0  0  0  0  0  0  0  0999 V3000
M  V30 BEGIN CTAB
M  V30 COUNTS 63 66 0 0 0
M  V30 BEGIN ATOM
M  V30 1 C 3.683528 0.791459 -1.512975 0
M  V30 2 C 3.479021 0.001004 -0.206027 0
M  V30 3 C 3.568909 0.939236 1.012819 0
M  V30 4 C 4.498332 -1.146026 -0.089033 0
M  V30 5 Si 1.498316 -0.829413 -0.248774 0 VAL=4
M  V30 6 C 1.458394 -1.772197 -1.872813 0
M  V30 7 C 1.457969 -1.990494 1.213082 0
M  V30 8 O 0.497262 0.504886 -0.215353 0
M  V30 9 C -0.872284 0.656412 0.226803 0
M  V30 10 C -1.132801 2.217104 0.164495 0
M  V30 11 C -0.159014 3.116180 -0.314614 0
M  V30 12 C -0.408980 4.489877 -0.376627 0
M  V30 13 C -1.635470 4.997530 0.039955 0
M  V30 14 C -2.613283 4.133470 0.521965 0
M  V30 15 C -2.366203 2.759684 0.584832 0
M  V30 16 C -1.049837 0.273366 1.720981 0
M  V30 17 C -2.199548 -0.363811 2.219631 0
M  V30 18 C -2.339734 -0.648270 3.582105 0
M  V30 19 C -1.347333 -0.274761 4.482431 0
M  V30 20 C -0.221734 0.400146 4.024927 0
M  V30 21 C -0.082786 0.681800 2.664054 0
M  V30 22 C -1.894331 0.031912 -0.804426 0 CFG=1
M  V30 23 C -1.690236 0.597073 -2.243260 0
M  V30 24 N -2.298301 -0.350837 -3.192393 0
M  V30 25 C -2.174906 -1.584023 -2.509806 0
M  V30 26 C -2.374484 -2.826521 -3.088559 0
M  V30 27 C -2.303299 -3.958996 -2.278648 0
M  V30 28 C -2.064518 -3.829297 -0.905398 0
M  V30 29 C -1.898360 -2.566978 -0.325822 0
M  V30 30 C -1.945189 -1.441517 -1.135586 0
M  V30 31 H 3.622917 0.140505 -2.391751 0
M  V30 32 H 4.669827 1.268823 -1.524225 0
M  V30 33 H 2.931351 1.579426 -1.628838 0
M  V30 34 H 4.565410 1.390262 1.079150 0
M  V30 35 H 2.841526 1.755504 0.945913 0
M  V30 36 H 3.385797 0.402756 1.949874 0
M  V30 37 H 5.520595 -0.751204 -0.076227 0
M  V30 38 H 4.425405 -1.842228 -0.930643 0
M  V30 39 H 4.356703 -1.719453 0.833156 0
M  V30 40 H 1.311331 -1.089027 -2.714150 0
M  V30 41 H 2.395661 -2.311826 -2.033568 0
M  V30 42 H 0.657720 -2.512803 -1.883824 0
M  V30 43 H 0.455893 -2.378746 1.400935 0
M  V30 44 H 1.805533 -1.497636 2.124795 0
M  V30 45 H 2.111626 -2.850003 1.034574 0
M  V30 46 H 0.813078 2.760911 -0.648188 0
M  V30 47 H 0.359123 5.162586 -0.749510 0
M  V30 48 H -1.827256 6.066057 -0.006733 0
M  V30 49 H -3.570209 4.527498 0.854606 0
M  V30 50 H -3.152203 2.117677 0.976289 0
M  V30 51 H -3.021620 -0.641568 1.565107 0
M  V30 52 H -3.234120 -1.151998 3.940671 0
M  V30 53 H -1.460384 -0.491687 5.541103 0
M  V30 54 H 0.545560 0.719653 4.725118 0
M  V30 55 H 0.791318 1.242113 2.337410 0
M  V30 56 H -2.921089 0.284565 -0.501766 0
M  V30 57 H -0.628595 0.706505 -2.496834 0
M  V30 58 H -2.162711 1.577888 -2.361763 0
M  V30 59 H -1.846438 -0.385894 -4.102690 0
M  V30 60 H -2.592136 -2.918524 -4.146939 0
M  V30 61 H -2.450236 -4.944652 -2.712266 0
M  V30 62 H -2.024566 -4.718548 -0.280457 0
M  V30 63 H -1.743909 -2.504933 0.743704 0
M  V30 END ATOM
M  V30 BEGIN BOND
M  V30 1 1 1 2
M  V30 2 1 2 3
M  V30 3 1 2 4
M  V30 4 1 2 5
M  V30 5 1 5 6
M  V30 6 1 5 7
M  V30 7 1 5 8
M  V30 8 1 8 9
M  V30 9 1 9 10
M  V30 10 2 10 11
M  V30 11 1 11 12
M  V30 12 2 12 13
M  V30 13 1 13 14
M  V30 14 2 14 15
M  V30 15 1 9 16
M  V30 16 2 16 17
M  V30 17 1 17 18
M  V30 18 2 18 19
M  V30 19 1 19 20
M  V30 20 2 20 21
M  V30 21 1 9 22
M  V30 22 1 22 23
M  V30 23 1 23 24
M  V30 24 1 24 25
M  V30 25 2 25 26
M  V30 26 1 26 27
M  V30 27 2 27 28
M  V30 28 1 28 29
M  V30 29 2 29 30
M  V30 30 1 15 10
M  V30 31 1 21 16
M  V30 32 1 30 22
M  V30 33 1 30 25
M  V30 34 1 1 31
M  V30 35 1 1 32
M  V30 36 1 1 33
M  V30 37 1 3 34
M  V30 38 1 3 35
M  V30 39 1 3 36
M  V30 40 1 4 37
M  V30 41 1 4 38
M  V30 42 1 4 39
M  V30 43 1 6 40
M  V30 44 1 6 41
M  V30 45 1 6 42
M  V30 46 1 7 43
M  V30 47 1 7 44
M  V30 48 1 7 45
M  V30 49 1 11 46
M  V30 50 1 12 47
M  V30 51 1 13 48
M  V30 52 1 14 49
M  V30 53 1 15 50
M  V30 54 1 17 51
M  V30 55 1 18 52
M  V30 56 1 19 53
M  V30 57 1 20 54
M  V30 58 1 21 55
M  V30 59 1 22 56 CFG=1
M  V30 60 1 23 57
M  V30 61 1 23 58
M  V30 62 1 24 59
M  V30 63 1 26 60
M  V30 64 1 27 61
M  V30 65 1 28 62
M  V30 66 1 29 63
M  V30 END BOND
M  V30 END CTAB
M  END
>  <catalyst_id>  (1) 
HNKRDQTUJQSBID_DEOSSOPVSA_NONE

>  <source_smiles>  (1) 
CC(C)(C)[Si](C)(C)OC(c1ccccc1)(c1ccccc1)[C@H]1CNc2ccccc21

>  <axial_configuration>  (1) 
none

>  <inchikey>  (1) 
HNKRDQTUJQSBID-DEOSSOPVSA-N

>  <build_source>  (1) 
smiles

>  <rdkit_version>  (1) 
2025.09.6

>  <random_seed>  (1) 
42

>  <generated_at>  (1) 
2026-05-19T12:31:43

$$$$
