catalyst52
     RDKit          3D

  0  0  0  0  0  0  0  0  0  0999 V3000
M  V30 BEGIN CTAB
M  V30 COUNTS 63 67 0 0 0
M  V30 BEGIN ATOM
M  V30 1 C -5.512792 -2.894668 -0.812148 0
M  V30 2 C -4.414408 -2.155671 -0.608729 0
M  V30 3 C -3.165865 -2.669424 0.069048 0 CFG=1
M  V30 4 C -1.907331 -2.511016 -0.825191 0
M  V30 5 N -0.835476 -1.725373 -0.154678 0
M  V30 6 C -0.452620 -2.431574 1.091001 0
M  V30 7 C -1.648056 -2.631967 2.034632 0
M  V30 8 C -2.896499 -1.969724 1.424105 0 CFG=1
M  V30 9 C -2.539308 -0.486218 1.215377 0
M  V30 10 C -1.401314 -0.368320 0.175983 0 CFG=1
M  V30 11 C -0.291798 0.669547 0.597010 0 CFG=1
M  V30 12 N 0.927872 0.411990 -0.198085 0
M  V30 13 C 2.226061 0.776891 0.101196 0
M  V30 14 S 2.686281 1.782248 1.361386 0
M  V30 15 C 3.231641 0.164457 -0.811634 0
M  V30 16 C 4.128820 0.967889 -1.525176 0
M  V30 17 C 5.072186 0.385834 -2.385933 0
M  V30 18 C 6.026950 1.254732 -3.171610 0
M  V30 19 F 6.384805 2.389425 -2.511731 0
M  V30 20 F 5.493316 1.658434 -4.356452 0
M  V30 21 F 7.190709 0.618955 -3.481109 0
M  V30 22 C 5.087188 -1.012957 -2.533383 0
M  V30 23 C 4.184730 -1.830157 -1.830015 0
M  V30 24 C 4.232713 -3.333414 -1.973099 0
M  V30 25 F 4.647700 -3.735614 -3.205786 0
M  V30 26 F 5.083405 -3.909172 -1.081679 0
M  V30 27 F 3.022392 -3.925341 -1.776069 0
M  V30 28 C 3.261654 -1.228398 -0.961780 0
M  V30 29 C -0.787991 2.100972 0.404764 0
M  V30 30 C -0.887268 2.601404 -0.904089 0
M  V30 31 C -1.377517 3.874579 -1.102834 0
M  V30 32 N -1.782932 4.680355 -0.106246 0
M  V30 33 C -1.682447 4.228972 1.153057 0
M  V30 34 C -2.093441 5.082111 2.167844 0
M  V30 35 C -2.030380 4.718615 3.512547 0
M  V30 36 C -1.540700 3.469983 3.858057 0
M  V30 37 C -1.122849 2.592020 2.856888 0
M  V30 38 C -1.187426 2.942241 1.483562 0
M  V30 39 H -6.382097 -2.472151 -1.307714 0
M  V30 40 H -5.576670 -3.929725 -0.490684 0
M  V30 41 H -4.413767 -1.124112 -0.956165 0
M  V30 42 H -3.295474 -3.742890 0.268879 0
M  V30 43 H -2.147931 -2.045056 -1.789613 0
M  V30 44 H -1.512896 -3.503718 -1.080015 0
M  V30 45 H -0.014064 -3.405010 0.837343 0
M  V30 46 H 0.345595 -1.885960 1.607568 0
M  V30 47 H -1.827122 -3.702008 2.193791 0
M  V30 48 H -1.427280 -2.192540 3.014797 0
M  V30 49 H -3.751038 -2.070121 2.102588 0
M  V30 50 H -2.246712 -0.058020 2.180144 0
M  V30 51 H -3.414848 0.077954 0.874483 0
M  V30 52 H -1.841810 0.003864 -0.760272 0
M  V30 53 H -0.003604 0.478513 1.633132 0
M  V30 54 H 0.780075 -0.304730 -0.903935 0
M  V30 55 H 4.094814 2.051965 -1.415082 0
M  V30 56 H 5.814640 -1.472939 -3.205876 0
M  V30 57 H 2.569729 -1.849777 -0.392988 0
M  V30 58 H -0.584388 2.007912 -1.760824 0
M  V30 59 H -1.464211 4.293056 -2.101262 0
M  V30 60 H -2.471630 6.066654 1.901080 0
M  V30 61 H -2.355703 5.415271 4.280159 0
M  V30 62 H -1.473735 3.178326 4.903020 0
M  V30 63 H -0.729879 1.632598 3.178445 0
M  V30 END ATOM
M  V30 BEGIN BOND
M  V30 1 2 1 2
M  V30 2 1 2 3
M  V30 3 1 3 4
M  V30 4 1 4 5
M  V30 5 1 5 6
M  V30 6 1 6 7
M  V30 7 1 7 8
M  V30 8 1 8 9
M  V30 9 1 9 10
M  V30 10 1 10 11
M  V30 11 1 11 12
M  V30 12 1 12 13
M  V30 13 2 13 14
M  V30 14 1 13 15
M  V30 15 2 15 16
M  V30 16 1 16 17
M  V30 17 1 17 18
M  V30 18 1 18 19
M  V30 19 1 18 20
M  V30 20 1 18 21
M  V30 21 2 17 22
M  V30 22 1 22 23
M  V30 23 1 23 24
M  V30 24 1 24 25
M  V30 25 1 24 26
M  V30 26 1 24 27
M  V30 27 2 23 28
M  V30 28 1 11 29
M  V30 29 2 29 30
M  V30 30 1 30 31
M  V30 31 2 31 32
M  V30 32 1 32 33
M  V30 33 2 33 34
M  V30 34 1 34 35
M  V30 35 2 35 36
M  V30 36 1 36 37
M  V30 37 2 37 38
M  V30 38 1 8 3
M  V30 39 1 28 15
M  V30 40 1 38 29
M  V30 41 1 10 5
M  V30 42 1 38 33
M  V30 43 1 1 39
M  V30 44 1 1 40
M  V30 45 1 2 41
M  V30 46 1 3 42 CFG=1
M  V30 47 1 4 43
M  V30 48 1 4 44
M  V30 49 1 6 45
M  V30 50 1 6 46
M  V30 51 1 7 47
M  V30 52 1 7 48
M  V30 53 1 8 49 CFG=1
M  V30 54 1 9 50
M  V30 55 1 9 51
M  V30 56 1 10 52 CFG=3
M  V30 57 1 11 53 CFG=1
M  V30 58 1 12 54
M  V30 59 1 16 55
M  V30 60 1 22 56
M  V30 61 1 28 57
M  V30 62 1 30 58
M  V30 63 1 31 59
M  V30 64 1 34 60
M  V30 65 1 35 61
M  V30 66 1 36 62
M  V30 67 1 37 63
M  V30 END BOND
M  V30 END CTAB
M  END
>  <catalyst_id>  (1) 
FHWYLHNYIBKVPK_SEMUBUJISA_NONE

>  <source_smiles>  (1) 
C=C[C@H]1CN2CC[C@H]1C[C@H]2[C@@H](NC(=S)c1cc(C(F)(F)F)cc(C(F)(F)F)c1)c1ccnc2ccccc12

>  <axial_configuration>  (1) 
none

>  <inchikey>  (1) 
FHWYLHNYIBKVPK-SEMUBUJISA-N

>  <build_source>  (1) 
smiles

>  <rdkit_version>  (1) 
2025.09.6

>  <random_seed>  (1) 
42

>  <generated_at>  (1) 
2026-05-19T12:34:46

$$$$
