catalyst129
     RDKit          3D

  0  0  0  0  0  0  0  0  0  0999 V3000
M  V30 BEGIN CTAB
M  V30 COUNTS 72 77 0 0 0
M  V30 BEGIN ATOM
M  V30 1 C -2.989906 -3.342094 -3.349126 0
M  V30 2 C -3.153840 -3.104884 -1.853257 0
M  V30 3 C -1.945878 -3.601093 -1.040040 0 CFG=1
M  V30 4 C -0.670186 -2.759126 -1.288360 0
M  V30 5 N -0.103990 -2.225520 -0.024675 0
M  V30 6 C 0.231197 -3.365637 0.857759 0
M  V30 7 C -0.997395 -4.232049 1.168844 0
M  V30 8 C -2.233973 -3.627077 0.481688 0 CFG=1
M  V30 9 C -2.383884 -2.197769 1.028664 0
M  V30 10 C -1.151449 -1.356869 0.618134 0 CFG=1
M  V30 11 C -0.592376 -0.495072 1.814848 0 CFG=1
M  V30 12 N 0.783662 -0.054808 1.523301 0
M  V30 13 C 1.667852 0.303698 2.434644 0
M  V30 14 C 2.993496 0.670029 2.473989 0
M  V30 15 N 4.027357 0.867068 1.681448 0
M  V30 16 C 4.050749 1.126381 0.292847 0
M  V30 17 C 5.212452 0.827726 -0.432523 0
M  V30 18 C 5.268221 1.015829 -1.818568 0
M  V30 19 C 4.157580 1.509126 -2.516032 0
M  V30 20 C 4.201612 1.692490 -4.012283 0
M  V30 21 F 3.424267 2.722944 -4.449670 0
M  V30 22 F 5.454602 1.950436 -4.482844 0
M  V30 23 F 3.771773 0.588638 -4.683693 0
M  V30 24 C 2.990113 1.794275 -1.798087 0
M  V30 25 C 2.942051 1.603099 -0.413083 0
M  V30 26 C 2.975813 0.769193 3.951778 0
M  V30 27 O 3.743937 1.010672 4.849874 0
M  V30 28 C 1.541734 0.405721 3.912062 0
M  V30 29 O 0.720905 0.219220 4.777338 0
M  V30 30 C -1.485840 0.699293 2.142451 0
M  V30 31 C -2.168124 0.669901 3.367918 0
M  V30 32 C -2.995536 1.721424 3.701921 0
M  V30 33 N -3.201211 2.789187 2.910100 0
M  V30 34 C -2.548579 2.844108 1.740211 0
M  V30 35 C -2.757377 3.962059 0.944892 0
M  V30 36 C -2.123601 4.131122 -0.290054 0
M  V30 37 C -1.253613 3.156112 -0.750418 0
M  V30 38 O -0.558112 3.180982 -1.926577 0
M  V30 39 C -0.711898 4.338572 -2.739282 0
M  V30 40 C -1.038439 2.020781 0.035107 0
M  V30 41 C -1.670653 1.830364 1.291272 0
M  V30 42 H -2.136991 -2.790267 -3.754709 0
M  V30 43 H -2.844219 -4.405765 -3.562873 0
M  V30 44 H -3.886856 -3.010777 -3.882152 0
M  V30 45 H -3.324666 -2.036025 -1.682075 0
M  V30 46 H -4.056673 -3.630368 -1.519360 0
M  V30 47 H -1.737514 -4.634448 -1.351942 0
M  V30 48 H 0.085649 -3.376426 -1.791004 0
M  V30 49 H -0.860463 -1.923580 -1.972798 0
M  V30 50 H 0.683438 -3.007763 1.789885 0
M  V30 51 H 1.006862 -3.979518 0.382576 0
M  V30 52 H -0.833210 -5.257611 0.817292 0
M  V30 53 H -1.154136 -4.283300 2.252965 0
M  V30 54 H -3.123660 -4.224815 0.707238 0
M  V30 55 H -3.297242 -1.732610 0.640576 0
M  V30 56 H -2.495008 -2.242033 2.118780 0
M  V30 57 H -1.484602 -0.660728 -0.160800 0
M  V30 58 H -0.537335 -1.159874 2.687812 0
M  V30 59 H 1.108221 -0.464824 0.638709 0
M  V30 60 H 4.952942 0.998650 2.092196 0
M  V30 61 H 6.086944 0.427700 0.075789 0
M  V30 62 H 6.185223 0.769264 -2.351976 0
M  V30 63 H 2.105874 2.173744 -2.309244 0
M  V30 64 H 2.028190 1.869911 0.109472 0
M  V30 65 H -2.045546 -0.151165 4.068436 0
M  V30 66 H -3.530444 1.734491 4.647309 0
M  V30 67 H -3.436133 4.734322 1.301670 0
M  V30 68 H -2.334741 5.033182 -0.853632 0
M  V30 69 H -1.746845 4.445603 -3.080337 0
M  V30 70 H -0.372648 5.237698 -2.214323 0
M  V30 71 H -0.080563 4.211259 -3.623970 0
M  V30 72 H -0.347360 1.277621 -0.352027 0
M  V30 END ATOM
M  V30 BEGIN BOND
M  V30 1 1 1 2
M  V30 2 1 2 3
M  V30 3 1 3 4
M  V30 4 1 4 5
M  V30 5 1 5 6
M  V30 6 1 6 7
M  V30 7 1 7 8
M  V30 8 1 8 9
M  V30 9 1 9 10
M  V30 10 1 10 11
M  V30 11 1 11 12
M  V30 12 1 12 13
M  V30 13 2 13 14
M  V30 14 1 14 15
M  V30 15 1 15 16
M  V30 16 2 16 17
M  V30 17 1 17 18
M  V30 18 2 18 19
M  V30 19 1 19 20
M  V30 20 1 20 21
M  V30 21 1 20 22
M  V30 22 1 20 23
M  V30 23 1 19 24
M  V30 24 2 24 25
M  V30 25 1 14 26
M  V30 26 2 26 27
M  V30 27 1 26 28
M  V30 28 2 28 29
M  V30 29 1 11 30
M  V30 30 2 30 31
M  V30 31 1 31 32
M  V30 32 2 32 33
M  V30 33 1 33 34
M  V30 34 2 34 35
M  V30 35 1 35 36
M  V30 36 2 36 37
M  V30 37 1 37 38
M  V30 38 1 38 39
M  V30 39 1 37 40
M  V30 40 2 40 41
M  V30 41 1 8 3
M  V30 42 1 28 13
M  V30 43 1 41 30
M  V30 44 1 10 5
M  V30 45 1 25 16
M  V30 46 1 41 34
M  V30 47 1 1 42
M  V30 48 1 1 43
M  V30 49 1 1 44
M  V30 50 1 2 45
M  V30 51 1 2 46
M  V30 52 1 3 47 CFG=3
M  V30 53 1 4 48
M  V30 54 1 4 49
M  V30 55 1 6 50
M  V30 56 1 6 51
M  V30 57 1 7 52
M  V30 58 1 7 53
M  V30 59 1 8 54 CFG=3
M  V30 60 1 9 55
M  V30 61 1 9 56
M  V30 62 1 10 57 CFG=3
M  V30 63 1 11 58 CFG=1
M  V30 64 1 12 59
M  V30 65 1 15 60
M  V30 66 1 17 61
M  V30 67 1 18 62
M  V30 68 1 24 63
M  V30 69 1 25 64
M  V30 70 1 31 65
M  V30 71 1 32 66
M  V30 72 1 35 67
M  V30 73 1 36 68
M  V30 74 1 39 69
M  V30 75 1 39 70
M  V30 76 1 39 71
M  V30 77 1 40 72
M  V30 END BOND
M  V30 END CTAB
M  END
>  <catalyst_id>  (1) 
JFWNMMJUYJKPCU_JZWJADFXSA_NONE

>  <source_smiles>  (1) 
CC[C@H]1CN2CC[C@H]1C[C@H]2[C@@H](Nc1c(Nc2ccc(C(F)(F)F)cc2)c(=O)c1=O)c1ccnc2ccc(OC)cc12

>  <axial_configuration>  (1) 
none

>  <inchikey>  (1) 
JFWNMMJUYJKPCU-JZWJADFXSA-N

>  <build_source>  (1) 
smiles

>  <rdkit_version>  (1) 
2025.09.6

>  <random_seed>  (1) 
42

>  <generated_at>  (1) 
2026-05-19T12:36:52

$$$$
