catalyst424
     RDKit          3D

  0  0  0  0  0  0  0  0  0  0999 V3000
M  V30 BEGIN CTAB
M  V30 COUNTS 59 62 0 0 0
M  V30 BEGIN ATOM
M  V30 1 C -3.903764 -2.439853 1.446037 0
M  V30 2 C -4.203136 -1.826075 0.293941 0
M  V30 3 C -3.902869 -0.403490 -0.133422 0 CFG=1
M  V30 4 C -3.357898 0.587461 0.935312 0
M  V30 5 N -2.024072 1.140453 0.568680 0
M  V30 6 C -2.175227 1.913655 -0.687226 0
M  V30 7 C -2.793836 1.071222 -1.811625 0
M  V30 8 C -2.930718 -0.387756 -1.342071 0 CFG=1
M  V30 9 C -1.526519 -0.839212 -0.898216 0
M  V30 10 C -1.094290 -0.027621 0.343721 0 CFG=1
M  V30 11 C 0.417473 0.411885 0.297858 0 CFG=1
M  V30 12 N 0.616952 1.490503 1.292143 0
M  V30 13 C 1.643510 2.386378 1.331851 0
M  V30 14 S 3.002364 2.396555 0.368828 0
M  V30 15 N 1.542910 3.348050 2.292234 0
M  V30 16 C 0.590187 3.391966 3.409901 0
M  V30 17 C 0.770810 4.572607 4.361701 0
M  V30 18 F 2.014633 4.587535 4.890911 0
M  V30 19 F -0.110764 4.505689 5.384178 0
M  V30 20 F 0.578145 5.750895 3.729213 0
M  V30 21 C 1.336788 -0.777653 0.567166 0
M  V30 22 C 1.444931 -1.251777 1.884576 0
M  V30 23 C 2.238420 -2.349538 2.141366 0
M  V30 24 N 2.920312 -3.014272 1.192038 0
M  V30 25 C 2.840144 -2.570019 -0.070841 0
M  V30 26 C 3.558929 -3.261451 -1.034811 0
M  V30 27 C 3.549919 -2.890718 -2.382430 0
M  V30 28 C 2.805235 -1.793197 -2.784584 0
M  V30 29 O 2.698133 -1.313701 -4.060027 0
M  V30 30 C 3.496509 -1.946749 -5.052652 0
M  V30 31 C 2.073778 -1.083963 -1.827265 0
M  V30 32 C 2.064805 -1.450547 -0.456610 0
M  V30 33 H -4.192018 -3.476295 1.602618 0
M  V30 34 H -3.364899 -1.962742 2.255694 0
M  V30 35 H -4.739514 -2.414169 -0.452487 0
M  V30 36 H -4.865338 0.004716 -0.475291 0
M  V30 37 H -3.298561 0.150457 1.936296 0
M  V30 38 H -4.063918 1.422211 1.044056 0
M  V30 39 H -1.205932 2.314256 -1.006000 0
M  V30 40 H -2.800626 2.795520 -0.499646 0
M  V30 41 H -3.776784 1.471772 -2.086979 0
M  V30 42 H -2.161571 1.123740 -2.705992 0
M  V30 43 H -3.298151 -1.014872 -2.162331 0
M  V30 44 H -1.521138 -1.909642 -0.662481 0
M  V30 45 H -0.833111 -0.695246 -1.733526 0
M  V30 46 H -1.207460 -0.672981 1.226653 0
M  V30 47 H 0.625807 0.871194 -0.671365 0
M  V30 48 H -0.281515 1.867497 1.572908 0
M  V30 49 H 2.369710 3.936960 2.359955 0
M  V30 50 H -0.420451 3.421819 2.989756 0
M  V30 51 H 0.693930 2.452228 3.963252 0
M  V30 52 H 0.920922 -0.767841 2.702672 0
M  V30 53 H 2.348332 -2.738553 3.149311 0
M  V30 54 H 4.150265 -4.121083 -0.725943 0
M  V30 55 H 4.135568 -3.480722 -3.078573 0
M  V30 56 H 3.328774 -1.424423 -5.999461 0
M  V30 57 H 3.197195 -2.990895 -5.190796 0
M  V30 58 H 4.562247 -1.868662 -4.813124 0
M  V30 59 H 1.516443 -0.221504 -2.180137 0
M  V30 END ATOM
M  V30 BEGIN BOND
M  V30 1 2 1 2
M  V30 2 1 2 3
M  V30 3 1 3 4
M  V30 4 1 4 5
M  V30 5 1 5 6
M  V30 6 1 6 7
M  V30 7 1 7 8
M  V30 8 1 8 9
M  V30 9 1 9 10
M  V30 10 1 10 11
M  V30 11 1 11 12
M  V30 12 1 12 13
M  V30 13 2 13 14
M  V30 14 1 13 15
M  V30 15 1 15 16
M  V30 16 1 16 17
M  V30 17 1 17 18
M  V30 18 1 17 19
M  V30 19 1 17 20
M  V30 20 1 11 21
M  V30 21 2 21 22
M  V30 22 1 22 23
M  V30 23 2 23 24
M  V30 24 1 24 25
M  V30 25 2 25 26
M  V30 26 1 26 27
M  V30 27 2 27 28
M  V30 28 1 28 29
M  V30 29 1 29 30
M  V30 30 1 28 31
M  V30 31 2 31 32
M  V30 32 1 8 3
M  V30 33 1 32 21
M  V30 34 1 10 5
M  V30 35 1 32 25
M  V30 36 1 1 33
M  V30 37 1 1 34
M  V30 38 1 2 35
M  V30 39 1 3 36 CFG=3
M  V30 40 1 4 37
M  V30 41 1 4 38
M  V30 42 1 6 39
M  V30 43 1 6 40
M  V30 44 1 7 41
M  V30 45 1 7 42
M  V30 46 1 8 43 CFG=3
M  V30 47 1 9 44
M  V30 48 1 9 45
M  V30 49 1 10 46 CFG=1
M  V30 50 1 11 47 CFG=3
M  V30 51 1 12 48
M  V30 52 1 15 49
M  V30 53 1 16 50
M  V30 54 1 16 51
M  V30 55 1 22 52
M  V30 56 1 23 53
M  V30 57 1 26 54
M  V30 58 1 27 55
M  V30 59 1 30 56
M  V30 60 1 30 57
M  V30 61 1 30 58
M  V30 62 1 31 59
M  V30 END BOND
M  V30 END CTAB
M  END
>  <catalyst_id>  (1) 
ZALMHACSPIEEPW_PBFVBANWSA_NONE

>  <source_smiles>  (1) 
C=C[C@H]1CN2CC[C@H]1C[C@H]2[C@@H](NC(=S)NCC(F)(F)F)c1ccnc2ccc(OC)cc12

>  <axial_configuration>  (1) 
none

>  <inchikey>  (1) 
ZALMHACSPIEEPW-PBFVBANWSA-N

>  <build_source>  (1) 
smiles

>  <rdkit_version>  (1) 
2025.09.6

>  <random_seed>  (1) 
42

>  <generated_at>  (1) 
2026-05-19T12:32:58

$$$$
