catalyst234
     RDKit          3D

  0  0  0  0  0  0  0  0  0  0999 V3000
M  V30 BEGIN CTAB
M  V30 COUNTS 122 131 0 0 0
M  V30 BEGIN ATOM
M  V30 1 O 1.850957 5.335856 -0.731600 0
M  V30 2 C 2.415014 4.457908 -0.125230 0
M  V30 3 C 2.353973 2.972105 -0.019023 0
M  V30 4 N 1.519995 2.178136 -0.669251 0
M  V30 5 C 1.138344 0.795692 -0.262964 0 CFG=2
M  V30 6 C 1.508308 -0.193031 -1.380160 0
M  V30 7 C 1.337380 0.202256 -2.725339 0
M  V30 8 C 1.613388 -0.663357 -3.777716 0
M  V30 9 C 2.052292 -1.953033 -3.512702 0
M  V30 10 C 2.227477 -2.395500 -2.196092 0
M  V30 11 C 2.665555 -3.710698 -1.970719 0
M  V30 12 C 2.854639 -4.194586 -0.680280 0
M  V30 13 C 2.614604 -3.363541 0.401348 0
M  V30 14 C 2.183045 -2.051242 0.191085 0
M  V30 15 C 1.965852 -1.522984 -1.104865 0
M  V30 16 C -0.426120 0.757494 0.051463 0 CFG=2
M  V30 17 N -0.829839 1.969946 0.794003 0
M  V30 18 C -2.057339 2.404609 0.994330 0
M  V30 19 C -3.364951 2.062908 0.746796 0
M  V30 20 N -4.016010 1.072712 0.162521 0
M  V30 21 C -5.488645 0.937122 0.180329 0 CFG=2
M  V30 22 C -5.935861 0.116088 1.399510 0
M  V30 23 C -5.562140 -1.361163 1.296443 0
M  V30 24 C -6.003707 -1.982246 -0.025229 0
M  V30 25 C -5.523369 -1.166380 -1.223577 0
M  V30 26 C -6.004369 0.309782 -1.173528 0 CFG=1
M  V30 27 N -7.485195 0.405965 -1.370312 0
M  V30 28 C -8.006131 1.762507 -1.083099 0
M  V30 29 C -9.362238 2.088774 -1.725978 0
M  V30 30 C -10.200378 0.834642 -1.901343 0
M  V30 31 C -9.452342 -0.190373 -2.750666 0
M  V30 32 C -7.926262 -0.020920 -2.704492 0
M  V30 33 C -3.867929 3.293742 1.420052 0
M  V30 34 O -4.912799 3.840499 1.676178 0
M  V30 35 C -2.458755 3.650528 1.699369 0
M  V30 36 O -1.931516 4.579199 2.260848 0
M  V30 37 C -0.857998 -0.526356 0.761925 0
M  V30 38 C -1.481842 -1.504856 -0.043884 0
M  V30 39 C -1.895831 -2.721024 0.484629 0
M  V30 40 C -1.697386 -2.986447 1.834215 0
M  V30 41 C -1.065054 -2.055141 2.667157 0
M  V30 42 C -0.861111 -2.374007 4.020980 0
M  V30 43 C -0.210388 -1.491670 4.877852 0
M  V30 44 C 0.249033 -0.278794 4.387184 0
M  V30 45 C 0.046969 0.054494 3.044716 0
M  V30 46 C -0.622226 -0.809511 2.144065 0
M  V30 47 C 3.366609 2.952648 0.909302 0
M  V30 48 N 4.076416 2.108792 1.635259 0
M  V30 49 C 4.657919 0.871396 1.066586 0 CFG=2
M  V30 50 C 4.741018 -0.196641 2.168251 0
M  V30 51 C 5.793442 0.113481 3.229702 0
M  V30 52 C 7.153919 0.426028 2.617953 0
M  V30 53 C 7.058768 1.511113 1.546550 0
M  V30 54 C 6.065999 1.143330 0.406278 0 CFG=1
M  V30 55 N 6.568299 0.001555 -0.421307 0
M  V30 56 C 7.963564 0.195947 -0.877656 0
M  V30 57 C 8.355704 -0.607430 -2.129333 0
M  V30 58 C 7.597629 -1.921848 -2.199463 0
M  V30 59 C 6.089858 -1.673958 -2.169110 0
M  V30 60 C 5.710245 -0.310833 -1.573895 0
M  V30 61 C 3.470889 4.439440 0.909358 0
M  V30 62 O 4.118471 5.298387 1.453150 0
M  V30 63 H 0.787521 2.609635 -1.241306 0
M  V30 64 H 1.690039 0.560285 0.649723 0
M  V30 65 H 0.990005 1.202216 -2.973292 0
M  V30 66 H 1.485962 -0.332789 -4.806235 0
M  V30 67 H 2.258303 -2.616220 -4.351448 0
M  V30 68 H 2.863712 -4.377215 -2.807983 0
M  V30 69 H 3.189513 -5.215295 -0.522862 0
M  V30 70 H 2.755787 -3.729629 1.415056 0
M  V30 71 H 2.018433 -1.453583 1.081931 0
M  V30 72 H -0.949729 0.817062 -0.914572 0
M  V30 73 H -0.028800 2.542149 1.071624 0
M  V30 74 H -3.531057 0.185203 0.038893 0
M  V30 75 H -5.902299 1.943717 0.276194 0
M  V30 76 H -5.503232 0.532237 2.318815 0
M  V30 77 H -7.025647 0.194458 1.505681 0
M  V30 78 H -6.013733 -1.912390 2.129075 0
M  V30 79 H -4.477553 -1.468786 1.406762 0
M  V30 80 H -5.604166 -3.002579 -0.095610 0
M  V30 81 H -7.097467 -2.070105 -0.047105 0
M  V30 82 H -4.427533 -1.191771 -1.254243 0
M  V30 83 H -5.826053 -1.669654 -2.146109 0
M  V30 84 H -5.518281 0.851954 -1.995965 0
M  V30 85 H -7.296269 2.533727 -1.411141 0
M  V30 86 H -8.124427 1.858962 0.002145 0
M  V30 87 H -9.203369 2.559194 -2.704114 0
M  V30 88 H -9.898909 2.814914 -1.107540 0
M  V30 89 H -11.166468 1.073222 -2.356191 0
M  V30 90 H -10.416830 0.400248 -0.916808 0
M  V30 91 H -9.730492 -1.198298 -2.416332 0
M  V30 92 H -9.777094 -0.109689 -3.793654 0
M  V30 93 H -7.506146 -0.987085 -2.997531 0
M  V30 94 H -7.599325 0.700970 -3.463972 0
M  V30 95 H -1.634767 -1.329386 -1.109750 0
M  V30 96 H -2.369249 -3.462282 -0.153024 0
M  V30 97 H -2.031473 -3.943391 2.230510 0
M  V30 98 H -1.206723 -3.325679 4.422344 0
M  V30 99 H -0.060938 -1.754281 5.921655 0
M  V30 100 H 0.764622 0.413858 5.044887 0
M  V30 101 H 0.433737 1.015329 2.718981 0
M  V30 102 H 4.690669 2.506272 2.349091 0
M  V30 103 H 3.959081 0.507170 0.317395 0
M  V30 104 H 3.765241 -0.309250 2.656987 0
M  V30 105 H 4.975684 -1.165258 1.710209 0
M  V30 106 H 5.884888 -0.737882 3.913815 0
M  V30 107 H 5.463689 0.964638 3.837405 0
M  V30 108 H 7.581199 -0.488135 2.190004 0
M  V30 109 H 7.838774 0.753739 3.406870 0
M  V30 110 H 8.059855 1.729615 1.158986 0
M  V30 111 H 6.744143 2.450050 2.016540 0
M  V30 112 H 5.978995 2.021034 -0.248823 0
M  V30 113 H 8.164350 1.255306 -1.095437 0
M  V30 114 H 8.638110 -0.105803 -0.064949 0
M  V30 115 H 8.136625 -0.017165 -3.029330 0
M  V30 116 H 9.436929 -0.794501 -2.125948 0
M  V30 117 H 7.879796 -2.548773 -1.344322 0
M  V30 118 H 7.870616 -2.480183 -3.102889 0
M  V30 119 H 5.615352 -2.479495 -1.595758 0
M  V30 120 H 5.685368 -1.737234 -3.186242 0
M  V30 121 H 4.655920 -0.378077 -1.309261 0
M  V30 122 H 5.787266 0.477191 -2.335408 0
M  V30 END ATOM
M  V30 BEGIN BOND
M  V30 1 2 1 2
M  V30 2 1 2 3
M  V30 3 1 3 4
M  V30 4 1 4 5
M  V30 5 1 5 6
M  V30 6 2 6 7
M  V30 7 1 7 8
M  V30 8 2 8 9
M  V30 9 1 9 10
M  V30 10 2 10 11
M  V30 11 1 11 12
M  V30 12 2 12 13
M  V30 13 1 13 14
M  V30 14 2 14 15
M  V30 15 1 5 16
M  V30 16 1 16 17
M  V30 17 1 17 18
M  V30 18 2 18 19
M  V30 19 1 19 20
M  V30 20 1 20 21
M  V30 21 1 21 22
M  V30 22 1 22 23
M  V30 23 1 23 24
M  V30 24 1 24 25
M  V30 25 1 25 26
M  V30 26 1 26 27
M  V30 27 1 27 28
M  V30 28 1 28 29
M  V30 29 1 29 30
M  V30 30 1 30 31
M  V30 31 1 31 32
M  V30 32 1 19 33
M  V30 33 2 33 34
M  V30 34 1 33 35
M  V30 35 2 35 36
M  V30 36 1 16 37
M  V30 37 2 37 38
M  V30 38 1 38 39
M  V30 39 2 39 40
M  V30 40 1 40 41
M  V30 41 2 41 42
M  V30 42 1 42 43
M  V30 43 2 43 44
M  V30 44 1 44 45
M  V30 45 2 45 46
M  V30 46 2 3 47
M  V30 47 1 47 48
M  V30 48 1 48 49
M  V30 49 1 49 50
M  V30 50 1 50 51
M  V30 51 1 51 52
M  V30 52 1 52 53
M  V30 53 1 53 54
M  V30 54 1 54 55
M  V30 55 1 55 56
M  V30 56 1 56 57
M  V30 57 1 57 58
M  V30 58 1 58 59
M  V30 59 1 59 60
M  V30 60 1 47 61
M  V30 61 2 61 62
M  V30 62 1 61 2
M  V30 63 1 15 6
M  V30 64 1 35 18
M  V30 65 1 46 37
M  V30 66 1 54 49
M  V30 67 1 60 55
M  V30 68 1 15 10
M  V30 69 1 26 21
M  V30 70 1 32 27
M  V30 71 1 46 41
M  V30 72 1 4 63
M  V30 73 1 5 64 CFG=1
M  V30 74 1 7 65
M  V30 75 1 8 66
M  V30 76 1 9 67
M  V30 77 1 11 68
M  V30 78 1 12 69
M  V30 79 1 13 70
M  V30 80 1 14 71
M  V30 81 1 16 72 CFG=3
M  V30 82 1 17 73
M  V30 83 1 20 74
M  V30 84 1 21 75 CFG=1
M  V30 85 1 22 76
M  V30 86 1 22 77
M  V30 87 1 23 78
M  V30 88 1 23 79
M  V30 89 1 24 80
M  V30 90 1 24 81
M  V30 91 1 25 82
M  V30 92 1 25 83
M  V30 93 1 26 84 CFG=3
M  V30 94 1 28 85
M  V30 95 1 28 86
M  V30 96 1 29 87
M  V30 97 1 29 88
M  V30 98 1 30 89
M  V30 99 1 30 90
M  V30 100 1 31 91
M  V30 101 1 31 92
M  V30 102 1 32 93
M  V30 103 1 32 94
M  V30 104 1 38 95
M  V30 105 1 39 96
M  V30 106 1 40 97
M  V30 107 1 42 98
M  V30 108 1 43 99
M  V30 109 1 44 100
M  V30 110 1 45 101
M  V30 111 1 48 102
M  V30 112 1 49 103 CFG=3
M  V30 113 1 50 104
M  V30 114 1 50 105
M  V30 115 1 51 106
M  V30 116 1 51 107
M  V30 117 1 52 108
M  V30 118 1 52 109
M  V30 119 1 53 110
M  V30 120 1 53 111
M  V30 121 1 54 112 CFG=3
M  V30 122 1 56 113
M  V30 123 1 56 114
M  V30 124 1 57 115
M  V30 125 1 57 116
M  V30 126 1 58 117
M  V30 127 1 58 118
M  V30 128 1 59 119
M  V30 129 1 59 120
M  V30 130 1 60 121
M  V30 131 1 60 122
M  V30 END BOND
M  V30 END CTAB
M  END
>  <catalyst_id>  (1) 
OFVAXNLTXHQYIB_ANMWOJLISA_NONE

>  <source_smiles>  (1) 
O=c1c(N[C@H](c2cccc3ccccc23)[C@H](Nc2c(N[C@@H]3CCCC[C@H]3N3CCCCC3)c(=O)c2=O)c2cccc3ccccc23)c(N[C@@H]2CCCC[C@H]2N2CCCCC2)c1=O

>  <axial_configuration>  (1) 
none

>  <inchikey>  (1) 
OFVAXNLTXHQYIB-ANMWOJLISA-N

>  <build_source>  (1) 
smiles

>  <rdkit_version>  (1) 
2025.09.6

>  <random_seed>  (1) 
42

>  <generated_at>  (1) 
2026-05-19T12:39:58

$$$$
