catalyst14
     RDKit          3D

  0  0  0  0  0  0  0  0  0  0999 V3000
M  V30 BEGIN CTAB
M  V30 COUNTS 18 18 0 0 0
M  V30 BEGIN ATOM
M  V30 1 O 2.240869 -0.162005 1.538004 0
M  V30 2 C 1.858359 -0.470448 0.417672 0
M  V30 3 O 2.743444 -0.597889 -0.593653 0
M  V30 4 C 0.433376 -0.813076 0.010779 0 CFG=1
M  V30 5 N -0.478713 -0.842588 1.197667 0
M  V30 6 C -1.487480 0.194485 0.974763 0
M  V30 7 C -1.622429 0.274437 -0.534740 0
M  V30 8 C -0.178146 0.170347 -0.994398 0 CFG=1
M  V30 9 O 0.410215 1.470267 -0.929367 0
M  V30 10 H 3.592870 -0.328872 -0.185702 0
M  V30 11 H 0.429376 -1.831368 -0.394911 0
M  V30 12 H 0.070630 -0.607352 2.031540 0
M  V30 13 H -2.434052 -0.063594 1.457836 0
M  V30 14 H -1.141312 1.151349 1.383386 0
M  V30 15 H -2.205045 -0.576271 -0.908314 0
M  V30 16 H -2.109206 1.204196 -0.844253 0
M  V30 17 H -0.097769 -0.193604 -2.023607 0
M  V30 18 H -0.024986 2.021987 -1.602703 0
M  V30 END ATOM
M  V30 BEGIN BOND
M  V30 1 2 1 2
M  V30 2 1 2 3
M  V30 3 1 2 4
M  V30 4 1 4 5
M  V30 5 1 5 6
M  V30 6 1 6 7
M  V30 7 1 7 8
M  V30 8 1 8 9
M  V30 9 1 8 4
M  V30 10 1 3 10
M  V30 11 1 4 11 CFG=3
M  V30 12 1 5 12
M  V30 13 1 6 13
M  V30 14 1 6 14
M  V30 15 1 7 15
M  V30 16 1 7 16
M  V30 17 1 8 17 CFG=3
M  V30 18 1 9 18
M  V30 END BOND
M  V30 END CTAB
M  END
>  <catalyst_id>  (1) 
BJBUEDPLEOHJGE_DMTCNVIQSA_NONE

>  <source_smiles>  (1) 
O=C(O)[C@H]1NCC[C@H]1O

>  <axial_configuration>  (1) 
none

>  <inchikey>  (1) 
BJBUEDPLEOHJGE-DMTCNVIQSA-N

>  <build_source>  (1) 
smiles

>  <rdkit_version>  (1) 
2025.09.6

>  <random_seed>  (1) 
42

>  <generated_at>  (1) 
2026-05-19T12:31:59

$$$$
