catalyst80
     RDKit          3D

  0  0  0  0  0  0  0  0  0  0999 V3000
M  V30 BEGIN CTAB
M  V30 COUNTS 39 39 0 0 0
M  V30 BEGIN ATOM
M  V30 1 C -3.717296 -2.167434 0.685978 0
M  V30 2 C -3.261970 -0.731935 0.379674 0
M  V30 3 C -4.289256 0.230811 0.990648 0
M  V30 4 C -1.820727 -0.486769 0.894514 0 CFG=2
M  V30 5 N -1.435912 0.950496 0.904153 0
M  V30 6 C -0.750027 -1.229833 0.043866 0
M  V30 7 O -0.991686 -2.074768 -0.810471 0
M  V30 8 N 0.534882 -0.828285 0.368296 0
M  V30 9 C 1.660966 -1.253984 -0.462930 0 CFG=1
M  V30 10 C 2.913727 -0.403399 -0.194307 0
M  V30 11 C 2.743278 1.047581 -0.586299 0
M  V30 12 C 2.600778 2.039200 0.393864 0
M  V30 13 C 2.426618 3.374746 0.027966 0
M  V30 14 C 2.395823 3.732006 -1.318537 0
M  V30 15 C 2.540488 2.754555 -2.300957 0
M  V30 16 C 2.713975 1.418264 -1.937875 0
M  V30 17 C 2.050504 -2.719758 -0.230587 0
M  V30 18 O 2.860909 -3.348448 -0.898437 0
M  V30 19 O 1.491425 -3.299178 0.852527 0
M  V30 20 H -3.729782 -2.354424 1.765451 0
M  V30 21 H -4.729337 -2.341555 0.304032 0
M  V30 22 H -3.066788 -2.914561 0.224511 0
M  V30 23 H -3.283646 -0.596409 -0.709730 0
M  V30 24 H -5.305128 -0.030962 0.674460 0
M  V30 25 H -4.258490 0.201447 2.085143 0
M  V30 26 H -4.112870 1.261541 0.667255 0
M  V30 27 H -1.726696 -0.861897 1.921374 0
M  V30 28 H -2.057565 1.456980 1.533522 0
M  V30 29 H -1.609474 1.335898 -0.026782 0
M  V30 30 H 0.539485 0.114865 0.753233 0
M  V30 31 H 1.344518 -1.172070 -1.510278 0
M  V30 32 H 3.188669 -0.469387 0.867246 0
M  V30 33 H 3.775858 -0.802955 -0.745055 0
M  V30 34 H 2.622599 1.780064 1.450201 0
M  V30 35 H 2.316308 4.137345 0.794574 0
M  V30 36 H 2.262326 4.772536 -1.602360 0
M  V30 37 H 2.520115 3.032976 -3.351489 0
M  V30 38 H 2.828250 0.668777 -2.718415 0
M  V30 39 H 1.815149 -4.222079 0.822021 0
M  V30 END ATOM
M  V30 BEGIN BOND
M  V30 1 1 1 2
M  V30 2 1 2 3
M  V30 3 1 2 4
M  V30 4 1 4 5
M  V30 5 1 4 6
M  V30 6 2 6 7
M  V30 7 1 6 8
M  V30 8 1 8 9
M  V30 9 1 9 10
M  V30 10 1 10 11
M  V30 11 2 11 12
M  V30 12 1 12 13
M  V30 13 2 13 14
M  V30 14 1 14 15
M  V30 15 2 15 16
M  V30 16 1 9 17
M  V30 17 2 17 18
M  V30 18 1 17 19
M  V30 19 1 16 11
M  V30 20 1 1 20
M  V30 21 1 1 21
M  V30 22 1 1 22
M  V30 23 1 2 23
M  V30 24 1 3 24
M  V30 25 1 3 25
M  V30 26 1 3 26
M  V30 27 1 4 27 CFG=1
M  V30 28 1 5 28
M  V30 29 1 5 29
M  V30 30 1 8 30
M  V30 31 1 9 31 CFG=3
M  V30 32 1 10 32
M  V30 33 1 10 33
M  V30 34 1 12 34
M  V30 35 1 13 35
M  V30 36 1 14 36
M  V30 37 1 15 37
M  V30 38 1 16 38
M  V30 39 1 19 39
M  V30 END BOND
M  V30 END CTAB
M  END
>  <catalyst_id>  (1) 
GJNDXQBALKCYSZ_RYUDHWBXSA_NONE

>  <source_smiles>  (1) 
CC(C)[C@H](N)C(=O)N[C@@H](Cc1ccccc1)C(=O)O

>  <axial_configuration>  (1) 
none

>  <inchikey>  (1) 
GJNDXQBALKCYSZ-RYUDHWBXSA-N

>  <build_source>  (1) 
smiles

>  <rdkit_version>  (1) 
2025.09.6

>  <random_seed>  (1) 
42

>  <generated_at>  (1) 
2026-05-19T12:30:03

$$$$
