catalyst49
     RDKit          3D

  0  0  0  0  0  0  0  0  0  0999 V3000
M  V30 BEGIN CTAB
M  V30 COUNTS 77 81 0 0 0
M  V30 BEGIN ATOM
M  V30 1 N 3.494867 -1.702386 0.968833 0
M  V30 2 C 2.474316 -0.622378 1.108289 0 CFG=1
M  V30 3 C 2.999211 0.711385 0.514722 0 CFG=2
M  V30 4 O 4.221825 1.033378 1.188586 0
M  V30 5 C 4.920641 2.113368 0.573114 0
M  V30 6 C 5.676107 1.642456 -0.645790 0
M  V30 7 C 6.589248 0.582370 -0.547578 0
M  V30 8 C 7.284215 0.139498 -1.673362 0
M  V30 9 C 7.076232 0.753875 -2.906735 0
M  V30 10 C 6.175547 1.812212 -3.015108 0
M  V30 11 C 5.479084 2.256745 -1.889965 0
M  V30 12 O 2.049726 1.750208 0.702891 0
M  V30 13 C 0.833511 1.494182 -0.009278 0 CFG=2
M  V30 14 C -0.077106 2.727650 0.130845 0
M  V30 15 O -0.493403 2.892864 1.491723 0
M  V30 16 C -1.300961 4.054308 1.683055 0
M  V30 17 C -2.733544 3.803801 1.284419 0
M  V30 18 C -3.460050 2.763502 1.880799 0
M  V30 19 C -4.786648 2.526634 1.519404 0
M  V30 20 C -5.401718 3.329918 0.561333 0
M  V30 21 C -4.691494 4.370453 -0.034933 0
M  V30 22 C -3.363559 4.608274 0.325145 0
M  V30 23 C 0.140353 0.214851 0.489658 0 CFG=1
M  V30 24 O -0.966120 -0.031287 -0.400934 0
M  V30 25 C -2.076770 -0.656678 0.243168 0
M  V30 26 C -3.208796 -0.769846 -0.746393 0
M  V30 27 C -3.785480 -2.015152 -1.031586 0
M  V30 28 C -4.848152 -2.114405 -1.931623 0
M  V30 29 C -5.347609 -0.970311 -2.551875 0
M  V30 30 C -4.785208 0.273870 -2.273262 0
M  V30 31 C -3.721749 0.373480 -1.375261 0
M  V30 32 C 1.115519 -0.989485 0.464507 0 CFG=2
M  V30 33 O 0.472505 -2.058513 1.186280 0
M  V30 34 C 0.992140 -3.355796 0.912668 0
M  V30 35 C -0.171757 -4.314735 0.885526 0
M  V30 36 C -0.779584 -4.724483 2.080497 0
M  V30 37 C -1.870277 -5.595073 2.058746 0
M  V30 38 C -2.367722 -6.060083 0.842668 0
M  V30 39 C -1.778874 -5.650888 -0.352420 0
M  V30 40 C -0.689322 -4.778184 -0.332245 0
M  V30 41 H 4.322809 -1.374073 1.477163 0
M  V30 42 H 3.802789 -1.746423 -0.003446 0
M  V30 43 H 2.315103 -0.495367 2.187355 0
M  V30 44 H 3.195973 0.580461 -0.557846 0
M  V30 45 H 5.646576 2.494561 1.300348 0
M  V30 46 H 4.239553 2.940848 0.342850 0
M  V30 47 H 6.759435 0.098286 0.412200 0
M  V30 48 H 7.990318 -0.682435 -1.587273 0
M  V30 49 H 7.619766 0.410583 -3.783242 0
M  V30 50 H 6.017952 2.293562 -3.977011 0
M  V30 51 H 4.781337 3.085074 -1.991814 0
M  V30 52 H 1.071458 1.398302 -1.077770 0
M  V30 53 H -0.954961 2.622588 -0.515556 0
M  V30 54 H 0.482671 3.620541 -0.172219 0
M  V30 55 H -0.869235 4.912449 1.154099 0
M  V30 56 H -1.279251 4.298659 2.751289 0
M  V30 57 H -2.984783 2.126794 2.624539 0
M  V30 58 H -5.336823 1.709570 1.978900 0
M  V30 59 H -6.433491 3.140634 0.277322 0
M  V30 60 H -5.172764 4.996701 -0.781498 0
M  V30 61 H -2.824763 5.424608 -0.149916 0
M  V30 62 H -0.220754 0.359013 1.516738 0
M  V30 63 H -2.410025 -0.055702 1.096571 0
M  V30 64 H -1.798876 -1.648667 0.604558 0
M  V30 65 H -3.408412 -2.915901 -0.551470 0
M  V30 66 H -5.286302 -3.085241 -2.146244 0
M  V30 67 H -6.175248 -1.048371 -3.251294 0
M  V30 68 H -5.173033 1.168554 -2.752077 0
M  V30 69 H -3.290312 1.349019 -1.160777 0
M  V30 70 H 1.248692 -1.296694 -0.582037 0
M  V30 71 H 1.524486 -3.397388 -0.044855 0
M  V30 72 H 1.688590 -3.643597 1.707595 0
M  V30 73 H -0.405868 -4.355221 3.033185 0
M  V30 74 H -2.333381 -5.906331 2.991241 0
M  V30 75 H -3.217369 -6.737287 0.826675 0
M  V30 76 H -2.171123 -6.006253 -1.301574 0
M  V30 77 H -0.249880 -4.455456 -1.273235 0
M  V30 END ATOM
M  V30 BEGIN BOND
M  V30 1 1 1 2
M  V30 2 1 2 3
M  V30 3 1 3 4
M  V30 4 1 4 5
M  V30 5 1 5 6
M  V30 6 2 6 7
M  V30 7 1 7 8
M  V30 8 2 8 9
M  V30 9 1 9 10
M  V30 10 2 10 11
M  V30 11 1 3 12
M  V30 12 1 12 13
M  V30 13 1 13 14
M  V30 14 1 14 15
M  V30 15 1 15 16
M  V30 16 1 16 17
M  V30 17 2 17 18
M  V30 18 1 18 19
M  V30 19 2 19 20
M  V30 20 1 20 21
M  V30 21 2 21 22
M  V30 22 1 13 23
M  V30 23 1 23 24
M  V30 24 1 24 25
M  V30 25 1 25 26
M  V30 26 2 26 27
M  V30 27 1 27 28
M  V30 28 2 28 29
M  V30 29 1 29 30
M  V30 30 2 30 31
M  V30 31 1 23 32
M  V30 32 1 32 33
M  V30 33 1 33 34
M  V30 34 1 34 35
M  V30 35 2 35 36
M  V30 36 1 36 37
M  V30 37 2 37 38
M  V30 38 1 38 39
M  V30 39 2 39 40
M  V30 40 1 32 2
M  V30 41 1 40 35
M  V30 42 1 11 6
M  V30 43 1 22 17
M  V30 44 1 31 26
M  V30 45 1 1 41
M  V30 46 1 1 42
M  V30 47 1 2 43 CFG=1
M  V30 48 1 3 44 CFG=3
M  V30 49 1 5 45
M  V30 50 1 5 46
M  V30 51 1 7 47
M  V30 52 1 8 48
M  V30 53 1 9 49
M  V30 54 1 10 50
M  V30 55 1 11 51
M  V30 56 1 13 52 CFG=3
M  V30 57 1 14 53
M  V30 58 1 14 54
M  V30 59 1 16 55
M  V30 60 1 16 56
M  V30 61 1 18 57
M  V30 62 1 19 58
M  V30 63 1 20 59
M  V30 64 1 21 60
M  V30 65 1 22 61
M  V30 66 1 23 62 CFG=1
M  V30 67 1 25 63
M  V30 68 1 25 64
M  V30 69 1 27 65
M  V30 70 1 28 66
M  V30 71 1 29 67
M  V30 72 1 30 68
M  V30 73 1 31 69
M  V30 74 1 32 70 CFG=3
M  V30 75 1 34 71
M  V30 76 1 34 72
M  V30 77 1 36 73
M  V30 78 1 37 74
M  V30 79 1 38 75
M  V30 80 1 39 76
M  V30 81 1 40 77
M  V30 END BOND
M  V30 END CTAB
M  END
>  <catalyst_id>  (1) 
DYDAVEMWGWFNJE_SLXQPGMDSA_NONE

>  <source_smiles>  (1) 
N[C@H]1[C@H](OCc2ccccc2)O[C@H](COCc2ccccc2)[C@@H](OCc2ccccc2)[C@@H]1OCc1ccccc1

>  <axial_configuration>  (1) 
none

>  <inchikey>  (1) 
DYDAVEMWGWFNJE-SLXQPGMDSA-N

>  <build_source>  (1) 
smiles

>  <rdkit_version>  (1) 
2025.09.6

>  <random_seed>  (1) 
42

>  <generated_at>  (1) 
2026-05-19T12:34:55

$$$$
