catalyst184
     RDKit          3D

  0  0  0  0  0  0  0  0  0  0999 V3000
M  V30 BEGIN CTAB
M  V30 COUNTS 87 90 0 0 0
M  V30 BEGIN ATOM
M  V30 1 C -5.979755 3.997611 3.143188 0
M  V30 2 C -4.982005 4.146031 2.035682 0
M  V30 3 O -5.180576 4.778599 1.008610 0
M  V30 4 O -3.846529 3.461989 2.341589 0
M  V30 5 C -2.773412 3.532148 1.383879 0
M  V30 6 C -2.495912 2.158586 0.754619 0 CFG=1
M  V30 7 O -1.916723 1.299403 1.755683 0
M  V30 8 C -1.450410 0.077489 1.176892 0 CFG=1
M  V30 9 N -0.742600 -0.598304 2.239181 0
M  V30 10 C 0.564558 -0.971281 2.296626 0
M  V30 11 S 1.164170 -1.371530 3.802465 0
M  V30 12 N 1.260483 -0.937513 1.124702 0
M  V30 13 C 2.694354 -1.246242 0.923618 0 CFG=1
M  V30 14 C 2.787789 -2.722932 0.525552 0
M  V30 15 C 3.337921 -3.655036 1.419324 0
M  V30 16 C 3.428856 -5.005144 1.076175 0
M  V30 17 C 2.969880 -5.443503 -0.163530 0
M  V30 18 C 2.415823 -4.533319 -1.060015 0
M  V30 19 C 2.319900 -3.183200 -0.716961 0
M  V30 20 C 3.397868 -0.261474 -0.123316 0 CFG=2
M  V30 21 C 4.830687 -0.750796 -0.396746 0
M  V30 22 C 5.180990 -1.252535 -1.660576 0
M  V30 23 C 6.477884 -1.705074 -1.909421 0
M  V30 24 C 7.440700 -1.656344 -0.903074 0
M  V30 25 C 7.110389 -1.152343 0.353088 0
M  V30 26 C 5.814632 -0.700694 0.605573 0
M  V30 27 N 3.440365 1.183738 0.261292 0
M  V30 28 C 3.990298 2.034143 -0.804937 0
M  V30 29 C 3.667824 3.436141 -0.321003 0
M  V30 30 C 2.366805 3.285473 0.449269 0
M  V30 31 C 2.141342 1.782323 0.569039 0
M  V30 32 C -2.662079 -0.741243 0.677328 0 CFG=2
M  V30 33 O -2.368402 -2.079880 0.207608 0
M  V30 34 C -1.381911 -2.266302 -0.704724 0
M  V30 35 C -1.320990 -3.705551 -1.113722 0
M  V30 36 O -0.620774 -1.396423 -1.106495 0
M  V30 37 C -3.454340 0.070709 -0.366717 0 CFG=1
M  V30 38 O -4.739163 -0.570237 -0.602545 0
M  V30 39 C -4.810866 -1.459168 -1.628531 0
M  V30 40 C -6.198710 -2.013463 -1.727774 0
M  V30 41 O -3.888352 -1.772460 -2.365758 0
M  V30 42 C -3.757693 1.482372 0.181597 0 CFG=2
M  V30 43 O -4.490980 2.287760 -0.770476 0
M  V30 44 C -3.862749 2.721734 -1.892050 0
M  V30 45 C -4.799995 3.533501 -2.730611 0
M  V30 46 O -2.696487 2.491932 -2.172941 0
M  V30 47 H -6.262955 2.947259 3.247366 0
M  V30 48 H -5.557321 4.377466 4.076860 0
M  V30 49 H -6.874467 4.580076 2.905412 0
M  V30 50 H -1.889487 3.863482 1.940373 0
M  V30 51 H -2.962919 4.276382 0.602989 0
M  V30 52 H -1.734774 2.319110 -0.016660 0
M  V30 53 H -0.759009 0.340173 0.376040 0
M  V30 54 H -1.181975 -0.538790 3.148677 0
M  V30 55 H 0.718637 -1.001370 0.271161 0
M  V30 56 H 3.211866 -1.108773 1.879967 0
M  V30 57 H 3.702884 -3.332997 2.392670 0
M  V30 58 H 3.861222 -5.712819 1.778546 0
M  V30 59 H 3.046234 -6.494015 -0.430148 0
M  V30 60 H 2.059249 -4.873955 -2.028342 0
M  V30 61 H 1.880391 -2.492756 -1.432898 0
M  V30 62 H 2.825508 -0.329695 -1.059846 0
M  V30 63 H 4.443425 -1.301163 -2.457696 0
M  V30 64 H 6.736266 -2.098485 -2.888794 0
M  V30 65 H 8.449433 -2.009782 -1.098135 0
M  V30 66 H 7.861356 -1.107842 1.137089 0
M  V30 67 H 5.572626 -0.296064 1.586362 0
M  V30 68 H 3.494329 1.847038 -1.766073 0
M  V30 69 H 5.070186 1.915696 -0.936256 0
M  V30 70 H 3.577123 4.146799 -1.148172 0
M  V30 71 H 4.455119 3.799672 0.350575 0
M  V30 72 H 1.533832 3.762795 -0.078012 0
M  V30 73 H 2.454411 3.756281 1.434830 0
M  V30 74 H 1.803351 1.542965 1.580336 0
M  V30 75 H 1.374780 1.479693 -0.154541 0
M  V30 76 H -3.331545 -0.905455 1.533289 0
M  V30 77 H -0.709315 -3.799664 -2.015205 0
M  V30 78 H -2.323971 -4.071513 -1.349024 0
M  V30 79 H -0.878746 -4.298238 -0.309751 0
M  V30 80 H -2.905284 0.137164 -1.311613 0
M  V30 81 H -6.908777 -1.203751 -1.913762 0
M  V30 82 H -6.452023 -2.544536 -0.806850 0
M  V30 83 H -6.248498 -2.718596 -2.562406 0
M  V30 84 H -4.466075 1.337444 1.008741 0
M  V30 85 H -5.665254 2.927771 -3.011433 0
M  V30 86 H -5.114686 4.422623 -2.178685 0
M  V30 87 H -4.287250 3.850678 -3.643126 0
M  V30 END ATOM
M  V30 BEGIN BOND
M  V30 1 1 1 2
M  V30 2 2 2 3
M  V30 3 1 2 4
M  V30 4 1 4 5
M  V30 5 1 5 6
M  V30 6 1 6 7
M  V30 7 1 7 8
M  V30 8 1 8 9
M  V30 9 1 9 10
M  V30 10 2 10 11
M  V30 11 1 10 12
M  V30 12 1 12 13
M  V30 13 1 13 14
M  V30 14 2 14 15
M  V30 15 1 15 16
M  V30 16 2 16 17
M  V30 17 1 17 18
M  V30 18 2 18 19
M  V30 19 1 13 20
M  V30 20 1 20 21
M  V30 21 2 21 22
M  V30 22 1 22 23
M  V30 23 2 23 24
M  V30 24 1 24 25
M  V30 25 2 25 26
M  V30 26 1 20 27
M  V30 27 1 27 28
M  V30 28 1 28 29
M  V30 29 1 29 30
M  V30 30 1 30 31
M  V30 31 1 8 32
M  V30 32 1 32 33
M  V30 33 1 33 34
M  V30 34 1 34 35
M  V30 35 2 34 36
M  V30 36 1 32 37
M  V30 37 1 37 38
M  V30 38 1 38 39
M  V30 39 1 39 40
M  V30 40 2 39 41
M  V30 41 1 37 42
M  V30 42 1 42 43
M  V30 43 1 43 44
M  V30 44 1 44 45
M  V30 45 2 44 46
M  V30 46 1 42 6
M  V30 47 1 19 14
M  V30 48 1 26 21
M  V30 49 1 31 27
M  V30 50 1 1 47
M  V30 51 1 1 48
M  V30 52 1 1 49
M  V30 53 1 5 50
M  V30 54 1 5 51
M  V30 55 1 6 52 CFG=3
M  V30 56 1 8 53 CFG=3
M  V30 57 1 9 54
M  V30 58 1 12 55
M  V30 59 1 13 56 CFG=1
M  V30 60 1 15 57
M  V30 61 1 16 58
M  V30 62 1 17 59
M  V30 63 1 18 60
M  V30 64 1 19 61
M  V30 65 1 20 62 CFG=3
M  V30 66 1 22 63
M  V30 67 1 23 64
M  V30 68 1 24 65
M  V30 69 1 25 66
M  V30 70 1 26 67
M  V30 71 1 28 68
M  V30 72 1 28 69
M  V30 73 1 29 70
M  V30 74 1 29 71
M  V30 75 1 30 72
M  V30 76 1 30 73
M  V30 77 1 31 74
M  V30 78 1 31 75
M  V30 79 1 32 76 CFG=1
M  V30 80 1 35 77
M  V30 81 1 35 78
M  V30 82 1 35 79
M  V30 83 1 37 80 CFG=3
M  V30 84 1 40 81
M  V30 85 1 40 82
M  V30 86 1 40 83
M  V30 87 1 42 84 CFG=1
M  V30 88 1 45 85
M  V30 89 1 45 86
M  V30 90 1 45 87
M  V30 END BOND
M  V30 END CTAB
M  END
>  <catalyst_id>  (1) 
LTHIZCQXPRZDGM_NGOJXASSSA_NONE

>  <source_smiles>  (1) 
CC(=O)OC[C@H]1O[C@@H](NC(=S)N[C@@H](c2ccccc2)[C@H](c2ccccc2)N2CCCC2)[C@H](OC(C)=O)[C@@H](OC(C)=O)[C@@H]1OC(C)=O

>  <axial_configuration>  (1) 
none

>  <inchikey>  (1) 
LTHIZCQXPRZDGM-NGOJXASSSA-N

>  <build_source>  (1) 
smiles

>  <rdkit_version>  (1) 
2025.09.6

>  <random_seed>  (1) 
42

>  <generated_at>  (1) 
2026-05-19T12:33:22

$$$$
