catalyst235
     RDKit          3D

  0  0  0  0  0  0  0  0  0  0999 V3000
M  V30 BEGIN CTAB
M  V30 COUNTS 122 131 0 0 0
M  V30 BEGIN ATOM
M  V30 1 O -2.776612 3.046950 2.504024 0
M  V30 2 C -2.010978 2.231564 2.050713 0
M  V30 3 C -2.032517 0.863700 1.460485 0
M  V30 4 N -3.042554 0.037721 1.265865 0
M  V30 5 C -4.456992 0.410544 1.487536 0 CFG=2
M  V30 6 C -5.288989 -0.847696 1.789001 0
M  V30 7 C -5.490664 -1.752345 0.575979 0
M  V30 8 C -5.980484 -0.989737 -0.648192 0
M  V30 9 C -5.109239 0.230826 -0.939343 0
M  V30 10 C -5.036749 1.212608 0.263748 0 CFG=1
M  V30 11 N -6.357047 1.861014 0.538713 0
M  V30 12 C -6.938943 2.480450 -0.674494 0
M  V30 13 C -7.943829 3.611504 -0.410200 0
M  V30 14 C -8.697009 3.383540 0.887824 0
M  V30 15 C -7.721331 3.255134 2.055490 0
M  V30 16 C -6.303585 2.851260 1.624695 0
M  V30 17 C -0.676220 0.886446 1.238203 0
M  V30 18 N 0.295521 0.140166 0.739889 0
M  V30 19 C 0.174748 -1.326708 0.500013 0 CFG=1
M  V30 20 C -0.743855 -1.622982 -0.696027 0
M  V30 21 C -0.697386 -0.775464 -1.823784 0
M  V30 22 C -1.463230 -1.032641 -2.953933 0
M  V30 23 C -2.288661 -2.148760 -2.987464 0
M  V30 24 C -2.367765 -3.017882 -1.892409 0
M  V30 25 C -3.215079 -4.135662 -1.963851 0
M  V30 26 C -3.329413 -5.021217 -0.896106 0
M  V30 27 C -2.600384 -4.794934 0.260759 0
M  V30 28 C -1.753467 -3.685949 0.346970 0
M  V30 29 C -1.600568 -2.768888 -0.722611 0
M  V30 30 C 1.610671 -1.969843 0.240266 0 CFG=1
M  V30 31 N 2.437563 -1.061473 -0.594366 0
M  V30 32 C 3.498363 -1.441140 -1.278522 0
M  V30 33 C 4.422729 -0.856837 -2.109122 0
M  V30 34 N 4.716762 0.324150 -2.612449 0
M  V30 35 C 3.990874 1.564638 -2.323272 0 CFG=2
M  V30 36 C 3.095775 1.876635 -3.533572 0
M  V30 37 C 2.342487 3.189636 -3.362380 0
M  V30 38 C 3.297940 4.344845 -3.096030 0
M  V30 39 C 4.185771 4.070531 -1.884818 0
M  V30 40 C 4.975561 2.748710 -2.027569 0 CFG=1
M  V30 41 N 5.877171 2.632371 -0.851818 0
M  V30 42 C 5.236885 2.100304 0.358003 0
M  V30 43 C 6.163771 2.223310 1.569238 0
M  V30 44 C 7.499413 1.534701 1.315517 0
M  V30 45 C 8.112684 2.029751 0.010962 0
M  V30 46 C 7.122326 1.912961 -1.150480 0
M  V30 47 C 5.145355 -2.141749 -2.297710 0
M  V30 48 O 6.114087 -2.557659 -2.883750 0
M  V30 49 C 4.136000 -2.777769 -1.419476 0
M  V30 50 O 3.956720 -3.916238 -1.063224 0
M  V30 51 C 2.314538 -2.264117 1.575152 0
M  V30 52 C 3.058341 -1.241765 2.205299 0
M  V30 53 C 3.642611 -1.433129 3.451258 0
M  V30 54 C 3.493106 -2.650526 4.101782 0
M  V30 55 C 2.777801 -3.699300 3.510351 0
M  V30 56 C 2.656333 -4.918741 4.196935 0
M  V30 57 C 1.969396 -5.993323 3.639660 0
M  V30 58 C 1.403334 -5.863102 2.381496 0
M  V30 59 C 1.514046 -4.654613 1.687233 0
M  V30 60 C 2.186981 -3.531220 2.228868 0
M  V30 61 C -0.548501 2.243627 1.830006 0
M  V30 62 O 0.322142 3.047542 2.053528 0
M  V30 63 H -2.924066 -0.790892 0.682983 0
M  V30 64 H -4.477130 1.014849 2.397605 0
M  V30 65 H -6.273723 -0.540879 2.163719 0
M  V30 66 H -4.816261 -1.426755 2.592062 0
M  V30 67 H -4.547535 -2.250829 0.334778 0
M  V30 68 H -6.203719 -2.546724 0.824785 0
M  V30 69 H -5.975277 -1.657788 -1.517254 0
M  V30 70 H -7.021422 -0.682304 -0.495190 0
M  V30 71 H -4.096570 -0.106484 -1.191616 0
M  V30 72 H -5.468051 0.728264 -1.846557 0
M  V30 73 H -4.324084 2.004833 -0.004169 0
M  V30 74 H -7.457375 1.698273 -1.241475 0
M  V30 75 H -6.155267 2.892474 -1.323457 0
M  V30 76 H -7.412523 4.570405 -0.355571 0
M  V30 77 H -8.646119 3.685917 -1.248205 0
M  V30 78 H -9.290723 2.464318 0.805937 0
M  V30 79 H -9.404467 4.198868 1.074740 0
M  V30 80 H -7.662955 4.209912 2.592047 0
M  V30 81 H -8.120440 2.522758 2.768324 0
M  V30 82 H -5.816136 2.467767 2.523421 0
M  V30 83 H -5.730435 3.734357 1.312810 0
M  V30 84 H 1.251370 0.393840 0.995780 0
M  V30 85 H -0.250489 -1.754603 1.413132 0
M  V30 86 H -0.058948 0.105011 -1.828318 0
M  V30 87 H -1.413628 -0.365663 -3.810733 0
M  V30 88 H -2.876915 -2.335146 -3.883990 0
M  V30 89 H -3.799945 -4.326921 -2.861719 0
M  V30 90 H -3.990421 -5.880744 -0.968337 0
M  V30 91 H -2.690186 -5.476142 1.103593 0
M  V30 92 H -1.224645 -3.558753 1.287079 0
M  V30 93 H 1.484920 -2.897351 -0.326129 0
M  V30 94 H 1.966265 -0.184961 -0.810844 0
M  V30 95 H 5.515051 0.445319 -3.238010 0
M  V30 96 H 3.338188 1.437467 -1.451606 0
M  V30 97 H 3.704031 1.922616 -4.446698 0
M  V30 98 H 2.374470 1.063438 -3.683433 0
M  V30 99 H 1.755462 3.397662 -4.264088 0
M  V30 100 H 1.631475 3.099288 -2.532106 0
M  V30 101 H 3.925996 4.514579 -3.979127 0
M  V30 102 H 2.725631 5.264740 -2.930492 0
M  V30 103 H 3.553732 4.048297 -0.988644 0
M  V30 104 H 4.881638 4.910239 -1.761551 0
M  V30 105 H 5.607961 2.879050 -2.918262 0
M  V30 106 H 4.962382 1.046933 0.230979 0
M  V30 107 H 4.317796 2.650501 0.586008 0
M  V30 108 H 5.682563 1.781419 2.449227 0
M  V30 109 H 6.334431 3.283418 1.795737 0
M  V30 110 H 7.347233 0.449813 1.259983 0
M  V30 111 H 8.184576 1.722347 2.149340 0
M  V30 112 H 9.016602 1.452624 -0.214759 0
M  V30 113 H 8.422072 3.076439 0.126154 0
M  V30 114 H 7.601017 2.339198 -2.040145 0
M  V30 115 H 6.937166 0.853183 -1.354481 0
M  V30 116 H 3.200881 -0.277721 1.723382 0
M  V30 117 H 4.212598 -0.633175 3.917060 0
M  V30 118 H 3.953911 -2.779156 5.079255 0
M  V30 119 H 3.107513 -5.044450 5.179311 0
M  V30 120 H 1.892134 -6.931879 4.181290 0
M  V30 121 H 0.886120 -6.703980 1.926351 0
M  V30 122 H 1.078519 -4.630848 0.692727 0
M  V30 END ATOM
M  V30 BEGIN BOND
M  V30 1 2 1 2
M  V30 2 1 2 3
M  V30 3 1 3 4
M  V30 4 1 4 5
M  V30 5 1 5 6
M  V30 6 1 6 7
M  V30 7 1 7 8
M  V30 8 1 8 9
M  V30 9 1 9 10
M  V30 10 1 10 11
M  V30 11 1 11 12
M  V30 12 1 12 13
M  V30 13 1 13 14
M  V30 14 1 14 15
M  V30 15 1 15 16
M  V30 16 2 3 17
M  V30 17 1 17 18
M  V30 18 1 18 19
M  V30 19 1 19 20
M  V30 20 2 20 21
M  V30 21 1 21 22
M  V30 22 2 22 23
M  V30 23 1 23 24
M  V30 24 2 24 25
M  V30 25 1 25 26
M  V30 26 2 26 27
M  V30 27 1 27 28
M  V30 28 2 28 29
M  V30 29 1 19 30
M  V30 30 1 30 31
M  V30 31 1 31 32
M  V30 32 2 32 33
M  V30 33 1 33 34
M  V30 34 1 34 35
M  V30 35 1 35 36
M  V30 36 1 36 37
M  V30 37 1 37 38
M  V30 38 1 38 39
M  V30 39 1 39 40
M  V30 40 1 40 41
M  V30 41 1 41 42
M  V30 42 1 42 43
M  V30 43 1 43 44
M  V30 44 1 44 45
M  V30 45 1 45 46
M  V30 46 1 33 47
M  V30 47 2 47 48
M  V30 48 1 47 49
M  V30 49 2 49 50
M  V30 50 1 30 51
M  V30 51 2 51 52
M  V30 52 1 52 53
M  V30 53 2 53 54
M  V30 54 1 54 55
M  V30 55 2 55 56
M  V30 56 1 56 57
M  V30 57 2 57 58
M  V30 58 1 58 59
M  V30 59 2 59 60
M  V30 60 1 17 61
M  V30 61 2 61 62
M  V30 62 1 61 2
M  V30 63 1 10 5
M  V30 64 1 16 11
M  V30 65 1 29 20
M  V30 66 1 49 32
M  V30 67 1 60 51
M  V30 68 1 29 24
M  V30 69 1 40 35
M  V30 70 1 46 41
M  V30 71 1 60 55
M  V30 72 1 4 63
M  V30 73 1 5 64 CFG=1
M  V30 74 1 6 65
M  V30 75 1 6 66
M  V30 76 1 7 67
M  V30 77 1 7 68
M  V30 78 1 8 69
M  V30 79 1 8 70
M  V30 80 1 9 71
M  V30 81 1 9 72
M  V30 82 1 10 73 CFG=3
M  V30 83 1 12 74
M  V30 84 1 12 75
M  V30 85 1 13 76
M  V30 86 1 13 77
M  V30 87 1 14 78
M  V30 88 1 14 79
M  V30 89 1 15 80
M  V30 90 1 15 81
M  V30 91 1 16 82
M  V30 92 1 16 83
M  V30 93 1 18 84
M  V30 94 1 19 85 CFG=1
M  V30 95 1 21 86
M  V30 96 1 22 87
M  V30 97 1 23 88
M  V30 98 1 25 89
M  V30 99 1 26 90
M  V30 100 1 27 91
M  V30 101 1 28 92
M  V30 102 1 30 93 CFG=3
M  V30 103 1 31 94
M  V30 104 1 34 95
M  V30 105 1 35 96 CFG=1
M  V30 106 1 36 97
M  V30 107 1 36 98
M  V30 108 1 37 99
M  V30 109 1 37 100
M  V30 110 1 38 101
M  V30 111 1 38 102
M  V30 112 1 39 103
M  V30 113 1 39 104
M  V30 114 1 40 105 CFG=3
M  V30 115 1 42 106
M  V30 116 1 42 107
M  V30 117 1 43 108
M  V30 118 1 43 109
M  V30 119 1 44 110
M  V30 120 1 44 111
M  V30 121 1 45 112
M  V30 122 1 45 113
M  V30 123 1 46 114
M  V30 124 1 46 115
M  V30 125 1 52 116
M  V30 126 1 53 117
M  V30 127 1 54 118
M  V30 128 1 56 119
M  V30 129 1 57 120
M  V30 130 1 58 121
M  V30 131 1 59 122
M  V30 END BOND
M  V30 END CTAB
M  END
>  <catalyst_id>  (1) 
OFVAXNLTXHQYIB_JTAIAUHLSA_NONE

>  <source_smiles>  (1) 
O=c1c(N[C@@H]2CCCC[C@H]2N2CCCCC2)c(N[C@@H](c2cccc3ccccc23)[C@@H](Nc2c(N[C@@H]3CCCC[C@H]3N3CCCCC3)c(=O)c2=O)c2cccc3ccccc23)c1=O

>  <axial_configuration>  (1) 
none

>  <inchikey>  (1) 
OFVAXNLTXHQYIB-JTAIAUHLSA-N

>  <build_source>  (1) 
smiles

>  <rdkit_version>  (1) 
2025.09.6

>  <random_seed>  (1) 
42

>  <generated_at>  (1) 
2026-05-19T12:40:07

$$$$
