catalyst213
     RDKit          3D

  0  0  0  0  0  0  0  0  0  0999 V3000
M  V30 BEGIN CTAB
M  V30 COUNTS 41 42 0 0 0
M  V30 BEGIN ATOM
M  V30 1 C -4.163390 -0.308674 1.536771 0
M  V30 2 C -3.453456 0.184265 0.261569 0
M  V30 3 C -3.506152 -0.932282 -0.798464 0
M  V30 4 C -4.230170 1.402452 -0.280105 0
M  V30 5 C -2.000866 0.613316 0.602994 0 CFG=1
M  V30 6 C -1.105621 -0.476573 1.265325 0
M  V30 7 N 0.178162 -0.121863 0.711177 0
M  V30 8 C 1.242609 -1.084008 0.475646 0
M  V30 9 C 1.944062 -0.508353 -0.800341 0 CFG=2
M  V30 10 C 3.384057 0.042015 -0.597869 0
M  V30 11 C 4.323269 -1.107016 -0.178520 0
M  V30 12 C 3.450500 1.149763 0.470651 0
M  V30 13 C 3.910898 0.616213 -1.930561 0
M  V30 14 N 1.020626 0.553465 -1.221394 0
M  V30 15 C -0.072208 0.597921 -0.421321 0
M  V30 16 N -1.263456 1.043919 -0.644144 0
M  V30 17 H -4.139584 0.455505 2.321813 0
M  V30 18 H -5.214617 -0.546541 1.337310 0
M  V30 19 H -3.695061 -1.214515 1.936151 0
M  V30 20 H -4.543740 -1.191703 -1.039994 0
M  V30 21 H -3.019008 -1.849330 -0.453992 0
M  V30 22 H -3.023225 -0.625762 -1.732431 0
M  V30 23 H -5.276227 1.146158 -0.483986 0
M  V30 24 H -3.796204 1.773974 -1.214787 0
M  V30 25 H -4.226851 2.226680 0.442065 0
M  V30 26 H -2.031037 1.487926 1.269501 0
M  V30 27 H -1.391127 -1.490610 0.972313 0
M  V30 28 H -1.116116 -0.400540 2.356557 0
M  V30 29 H 1.895264 -1.170845 1.346792 0
M  V30 30 H 0.830278 -2.074694 0.250384 0
M  V30 31 H 1.958366 -1.291356 -1.569756 0
M  V30 32 H 5.361052 -0.761568 -0.105082 0
M  V30 33 H 4.297834 -1.923441 -0.909073 0
M  V30 34 H 4.051930 -1.522635 0.796912 0
M  V30 35 H 2.820725 2.005416 0.204520 0
M  V30 36 H 3.129500 0.789007 1.452906 0
M  V30 37 H 4.475111 1.523410 0.582685 0
M  V30 38 H 3.325248 1.482057 -2.258010 0
M  V30 39 H 4.952064 0.945571 -1.835265 0
M  V30 40 H 3.872974 -0.135739 -2.726810 0
M  V30 41 H 0.843586 0.699012 -2.206345 0
M  V30 END ATOM
M  V30 BEGIN BOND
M  V30 1 1 1 2
M  V30 2 1 2 3
M  V30 3 1 2 4
M  V30 4 1 2 5
M  V30 5 1 5 6
M  V30 6 1 6 7
M  V30 7 1 7 8
M  V30 8 1 8 9
M  V30 9 1 9 10
M  V30 10 1 10 11
M  V30 11 1 10 12
M  V30 12 1 10 13
M  V30 13 1 9 14
M  V30 14 1 14 15
M  V30 15 2 15 16
M  V30 16 1 16 5
M  V30 17 1 15 7
M  V30 18 1 1 17
M  V30 19 1 1 18
M  V30 20 1 1 19
M  V30 21 1 3 20
M  V30 22 1 3 21
M  V30 23 1 3 22
M  V30 24 1 4 23
M  V30 25 1 4 24
M  V30 26 1 4 25
M  V30 27 1 5 26 CFG=1
M  V30 28 1 6 27
M  V30 29 1 6 28
M  V30 30 1 8 29
M  V30 31 1 8 30
M  V30 32 1 9 31 CFG=3
M  V30 33 1 11 32
M  V30 34 1 11 33
M  V30 35 1 11 34
M  V30 36 1 12 35
M  V30 37 1 12 36
M  V30 38 1 12 37
M  V30 39 1 13 38
M  V30 40 1 13 39
M  V30 41 1 13 40
M  V30 42 1 14 41
M  V30 END BOND
M  V30 END CTAB
M  END
>  <catalyst_id>  (1) 
NHPAGFYCHIPMCC_NXEZZACHSA_NONE

>  <source_smiles>  (1) 
CC(C)(C)[C@H]1CN2C[C@H](C(C)(C)C)NC2=N1

>  <axial_configuration>  (1) 
none

>  <inchikey>  (1) 
NHPAGFYCHIPMCC-NXEZZACHSA-N

>  <build_source>  (1) 
smiles

>  <rdkit_version>  (1) 
2025.09.6

>  <random_seed>  (1) 
42

>  <generated_at>  (1) 
2026-05-19T12:31:51

$$$$
