catalyst32
     RDKit          3D

  0  0  0  0  0  0  0  0  0  0999 V3000
M  V30 BEGIN CTAB
M  V30 COUNTS 56 59 0 0 0
M  V30 BEGIN ATOM
M  V30 1 O 2.713512 -0.962520 2.758499 0
M  V30 2 C 1.772489 -0.897151 2.004858 0
M  V30 3 C 1.450464 -0.481447 0.616369 0
M  V30 4 N 2.182624 0.022399 -0.356221 0
M  V30 5 C 3.583487 0.114263 -0.510680 0
M  V30 6 C 4.495248 -0.686215 0.183990 0
M  V30 7 C 5.884369 -0.528508 0.027772 0
M  V30 8 C 6.842696 -1.408698 0.796040 0
M  V30 9 F 6.342865 -2.647788 1.057415 0
M  V30 10 F 8.012491 -1.617239 0.127781 0
M  V30 11 F 7.190146 -0.875028 1.997582 0
M  V30 12 C 6.364909 0.475282 -0.825386 0
M  V30 13 C 5.477734 1.305872 -1.522110 0
M  V30 14 C 5.990039 2.374023 -2.457658 0
M  V30 15 F 7.221116 2.842467 -2.114530 0
M  V30 16 F 6.100573 1.924743 -3.737515 0
M  V30 17 F 5.176935 3.465393 -2.513348 0
M  V30 18 C 4.095544 1.109144 -1.359431 0
M  V30 19 C 0.116087 -0.762723 0.793438 0
M  V30 20 N -0.990677 -0.680256 0.080730 0
M  V30 21 C -2.312697 -1.151878 0.547948 0 CFG=2
M  V30 22 C -2.379495 -2.658952 0.235193 0
M  V30 23 C -3.734424 -3.265024 0.556066 0
M  V30 24 C -4.831783 -2.539582 -0.200139 0
M  V30 25 C -4.836761 -1.052399 0.129926 0
M  V30 26 C -3.483067 -0.350768 -0.148592 0 CFG=1
M  V30 27 N -3.616134 1.071046 0.269266 0
M  V30 28 C -4.581061 1.834641 -0.534949 0
M  V30 29 C -4.240493 3.299856 -0.289130 0
M  V30 30 C -2.912356 3.282818 0.446027 0
M  V30 31 C -2.392413 1.869279 0.253775 0
M  V30 32 C 0.344735 -1.243825 2.180034 0
M  V30 33 O -0.275923 -1.724781 3.095789 0
M  V30 34 H 1.700744 0.393561 -1.173794 0
M  V30 35 H 4.144910 -1.478594 0.841370 0
M  V30 36 H 7.441265 0.610947 -0.945298 0
M  V30 37 H 3.408665 1.763301 -1.896578 0
M  V30 38 H -0.971609 -0.451572 -0.911083 0
M  V30 39 H -2.407423 -1.004014 1.631878 0
M  V30 40 H -2.151650 -2.827038 -0.826235 0
M  V30 41 H -1.607565 -3.194987 0.800927 0
M  V30 42 H -3.921533 -3.208537 1.635179 0
M  V30 43 H -3.738079 -4.326586 0.284348 0
M  V30 44 H -5.804234 -2.975174 0.056355 0
M  V30 45 H -4.694964 -2.676809 -1.279755 0
M  V30 46 H -5.105765 -0.924597 1.187244 0
M  V30 47 H -5.638866 -0.592249 -0.458401 0
M  V30 48 H -3.296228 -0.381319 -1.231863 0
M  V30 49 H -4.478472 1.613926 -1.604792 0
M  V30 50 H -5.614467 1.632551 -0.236708 0
M  V30 51 H -4.154559 3.838381 -1.239283 0
M  V30 52 H -5.006666 3.799212 0.313617 0
M  V30 53 H -3.076777 3.486391 1.511459 0
M  V30 54 H -2.217610 4.036596 0.063355 0
M  V30 55 H -1.869566 1.794026 -0.707356 0
M  V30 56 H -1.710328 1.616140 1.069715 0
M  V30 END ATOM
M  V30 BEGIN BOND
M  V30 1 2 1 2
M  V30 2 1 2 3
M  V30 3 1 3 4
M  V30 4 1 4 5
M  V30 5 2 5 6
M  V30 6 1 6 7
M  V30 7 1 7 8
M  V30 8 1 8 9
M  V30 9 1 8 10
M  V30 10 1 8 11
M  V30 11 2 7 12
M  V30 12 1 12 13
M  V30 13 1 13 14
M  V30 14 1 14 15
M  V30 15 1 14 16
M  V30 16 1 14 17
M  V30 17 2 13 18
M  V30 18 2 3 19
M  V30 19 1 19 20
M  V30 20 1 20 21
M  V30 21 1 21 22
M  V30 22 1 22 23
M  V30 23 1 23 24
M  V30 24 1 24 25
M  V30 25 1 25 26
M  V30 26 1 26 27
M  V30 27 1 27 28
M  V30 28 1 28 29
M  V30 29 1 29 30
M  V30 30 1 30 31
M  V30 31 1 19 32
M  V30 32 2 32 33
M  V30 33 1 32 2
M  V30 34 1 18 5
M  V30 35 1 26 21
M  V30 36 1 31 27
M  V30 37 1 4 34
M  V30 38 1 6 35
M  V30 39 1 12 36
M  V30 40 1 18 37
M  V30 41 1 20 38
M  V30 42 1 21 39 CFG=1
M  V30 43 1 22 40
M  V30 44 1 22 41
M  V30 45 1 23 42
M  V30 46 1 23 43
M  V30 47 1 24 44
M  V30 48 1 24 45
M  V30 49 1 25 46
M  V30 50 1 25 47
M  V30 51 1 26 48 CFG=3
M  V30 52 1 28 49
M  V30 53 1 28 50
M  V30 54 1 29 51
M  V30 55 1 29 52
M  V30 56 1 30 53
M  V30 57 1 30 54
M  V30 58 1 31 55
M  V30 59 1 31 56
M  V30 END BOND
M  V30 END CTAB
M  END
>  <catalyst_id>  (1) 
CRIYFAISGRLYEW_HZPDHXFCSA_NONE

>  <source_smiles>  (1) 
O=c1c(Nc2cc(C(F)(F)F)cc(C(F)(F)F)c2)c(N[C@@H]2CCCC[C@H]2N2CCCC2)c1=O

>  <axial_configuration>  (1) 
none

>  <inchikey>  (1) 
CRIYFAISGRLYEW-HZPDHXFCSA-N

>  <build_source>  (1) 
smiles

>  <rdkit_version>  (1) 
2025.09.6

>  <random_seed>  (1) 
42

>  <generated_at>  (1) 
2026-05-19T12:37:07

$$$$
