catalyst178
     RDKit          3D

  0  0  0  0  0  0  0  0  0  0999 V3000
M  V30 BEGIN CTAB
M  V30 COUNTS 67 72 0 0 0
M  V30 BEGIN ATOM
M  V30 1 C 1.399948 3.327522 1.645261 0
M  V30 2 C 0.186375 3.887369 1.736820 0
M  V30 3 C -0.854853 4.093397 0.653779 0 CFG=1
M  V30 4 C -0.498336 3.645633 -0.790890 0
M  V30 5 N -1.576039 2.831181 -1.418108 0
M  V30 6 C -2.828172 3.621351 -1.384168 0
M  V30 7 C -3.274912 3.915468 0.054784 0
M  V30 8 C -2.201005 3.424841 1.041184 0 CFG=1
M  V30 9 C -2.069210 1.901209 0.866458 0
M  V30 10 C -1.789795 1.570335 -0.618363 0 CFG=2
M  V30 11 C -0.619906 0.526342 -0.798948 0 CFG=2
M  V30 12 N -0.189639 0.595981 -2.225614 0
M  V30 13 S 1.444104 0.348159 -2.565190 0
M  V30 14 O 1.607564 0.756404 -3.947362 0
M  V30 15 O 2.213259 0.996357 -1.527773 0
M  V30 16 C 1.565144 -1.416402 -2.537870 0
M  V30 17 C 0.981659 -2.098900 -3.624038 0
M  V30 18 C 0.997011 -3.484508 -3.665566 0
M  V30 19 C 1.595401 -4.184031 -2.625846 0
M  V30 20 C 2.190304 -3.502131 -1.550012 0
M  V30 21 C 2.788213 -4.228219 -0.511257 0
M  V30 22 C 3.381564 -3.565196 0.551443 0
M  V30 23 C 3.355762 -2.189422 0.537703 0
M  V30 24 N 2.778946 -1.459358 -0.441726 0
M  V30 25 C 2.195986 -2.087180 -1.488061 0
M  V30 26 C -1.060999 -0.882323 -0.415920 0
M  V30 27 C -1.917593 -1.566739 -1.293745 0
M  V30 28 C -2.326657 -2.843579 -0.975972 0
M  V30 29 N -1.957376 -3.484482 0.146306 0
M  V30 30 C -1.138857 -2.849355 0.998034 0
M  V30 31 C -0.765008 -3.532297 2.144118 0
M  V30 32 C 0.084020 -2.966789 3.095398 0
M  V30 33 C 0.581639 -1.685005 2.909729 0
M  V30 34 O 1.414463 -1.242532 3.898985 0
M  V30 35 C 1.887351 0.095229 3.793956 0
M  V30 36 C 0.217677 -0.980253 1.760972 0
M  V30 37 C -0.649533 -1.537825 0.781225 0
M  V30 38 H 1.810593 2.918171 0.727677 0
M  V30 39 H 2.043673 3.273471 2.519089 0
M  V30 40 H -0.102414 4.275225 2.714916 0
M  V30 41 H -1.026696 5.179414 0.620447 0
M  V30 42 H -0.333181 4.539106 -1.408222 0
M  V30 43 H 0.443075 3.098081 -0.853738 0
M  V30 44 H -2.688462 4.560116 -1.934951 0
M  V30 45 H -3.621166 3.085083 -1.919974 0
M  V30 46 H -3.440852 4.991836 0.180829 0
M  V30 47 H -4.228274 3.414298 0.261349 0
M  V30 48 H -2.492325 3.670067 2.068894 0
M  V30 49 H -3.001672 1.413559 1.177182 0
M  V30 50 H -1.282575 1.523899 1.525780 0
M  V30 51 H -2.696006 1.105476 -1.033169 0
M  V30 52 H 0.213097 0.863351 -0.181570 0
M  V30 53 H -0.521857 1.455295 -2.681385 0
M  V30 54 H 0.505787 -1.543219 -4.430296 0
M  V30 55 H 0.542367 -4.016421 -4.497085 0
M  V30 56 H 1.596522 -5.271973 -2.657134 0
M  V30 57 H 2.792179 -5.315483 -0.523535 0
M  V30 58 H 3.846440 -4.106533 1.366731 0
M  V30 59 H 3.803101 -1.612050 1.341386 0
M  V30 60 H -2.251181 -1.113964 -2.223014 0
M  V30 61 H -2.982387 -3.403316 -1.636331 0
M  V30 62 H -1.144811 -4.538853 2.303236 0
M  V30 63 H 0.356249 -3.534791 3.980947 0
M  V30 64 H 1.056606 0.808645 3.791479 0
M  V30 65 H 2.500849 0.302568 4.675972 0
M  V30 66 H 2.522220 0.221119 2.910945 0
M  V30 67 H 0.632602 0.007570 1.603819 0
M  V30 END ATOM
M  V30 BEGIN BOND
M  V30 1 2 1 2
M  V30 2 1 2 3
M  V30 3 1 3 4
M  V30 4 1 4 5
M  V30 5 1 5 6
M  V30 6 1 6 7
M  V30 7 1 7 8
M  V30 8 1 8 9
M  V30 9 1 9 10
M  V30 10 1 10 11
M  V30 11 1 11 12
M  V30 12 1 12 13
M  V30 13 2 13 14
M  V30 14 2 13 15
M  V30 15 1 13 16
M  V30 16 2 16 17
M  V30 17 1 17 18
M  V30 18 2 18 19
M  V30 19 1 19 20
M  V30 20 2 20 21
M  V30 21 1 21 22
M  V30 22 2 22 23
M  V30 23 1 23 24
M  V30 24 2 24 25
M  V30 25 1 11 26
M  V30 26 2 26 27
M  V30 27 1 27 28
M  V30 28 2 28 29
M  V30 29 1 29 30
M  V30 30 2 30 31
M  V30 31 1 31 32
M  V30 32 2 32 33
M  V30 33 1 33 34
M  V30 34 1 34 35
M  V30 35 1 33 36
M  V30 36 2 36 37
M  V30 37 1 8 3
M  V30 38 1 25 16
M  V30 39 1 37 26
M  V30 40 1 10 5
M  V30 41 1 25 20
M  V30 42 1 37 30
M  V30 43 1 1 38
M  V30 44 1 1 39
M  V30 45 1 2 40
M  V30 46 1 3 41 CFG=3
M  V30 47 1 4 42
M  V30 48 1 4 43
M  V30 49 1 6 44
M  V30 50 1 6 45
M  V30 51 1 7 46
M  V30 52 1 7 47
M  V30 53 1 8 48 CFG=1
M  V30 54 1 9 49
M  V30 55 1 9 50
M  V30 56 1 10 51 CFG=3
M  V30 57 1 11 52 CFG=1
M  V30 58 1 12 53
M  V30 59 1 17 54
M  V30 60 1 18 55
M  V30 61 1 19 56
M  V30 62 1 21 57
M  V30 63 1 22 58
M  V30 64 1 23 59
M  V30 65 1 27 60
M  V30 66 1 28 61
M  V30 67 1 31 62
M  V30 68 1 32 63
M  V30 69 1 35 64
M  V30 70 1 35 65
M  V30 71 1 35 66
M  V30 72 1 36 67
M  V30 END BOND
M  V30 END CTAB
M  END
>  <catalyst_id>  (1) 
LODNMXYMCYRCAS_IPKMYGCFSA_NONE

>  <source_smiles>  (1) 
C=C[C@H]1CN2CC[C@H]1C[C@@H]2[C@H](NS(=O)(=O)c1cccc2cccnc12)c1ccnc2ccc(OC)cc12

>  <axial_configuration>  (1) 
none

>  <inchikey>  (1) 
LODNMXYMCYRCAS-IPKMYGCFSA-N

>  <build_source>  (1) 
smiles

>  <rdkit_version>  (1) 
2025.09.6

>  <random_seed>  (1) 
42

>  <generated_at>  (1) 
2026-05-19T12:33:36

$$$$
