catalyst105
     RDKit          3D

  0  0  0  0  0  0  0  0  0  0999 V3000
M  V30 BEGIN CTAB
M  V30 COUNTS 98 103 0 0 0
M  V30 BEGIN ATOM
M  V30 1 C -9.777209 0.747294 0.095554 0
M  V30 2 C -8.440740 0.688750 0.161466 0
M  V30 3 C -7.548306 1.901844 0.281632 0 CFG=1
M  V30 4 C -6.605077 1.816406 1.512424 0
M  V30 5 N -5.171534 1.925193 1.125713 0
M  V30 6 C -4.967774 3.237547 0.468963 0
M  V30 7 C -5.876629 3.418418 -0.756020 0
M  V30 8 C -6.684836 2.128525 -0.985110 0 CFG=1
M  V30 9 C -5.652713 0.998051 -1.156924 0
M  V30 10 C -4.875578 0.802527 0.165950 0 CFG=1
M  V30 11 C -3.329826 0.594630 -0.060374 0 CFG=1
M  V30 12 N -2.624926 0.773702 1.225862 0
M  V30 13 C -1.316434 0.910046 1.355875 0
M  V30 14 C -0.139722 0.447482 0.810998 0
M  V30 15 N 0.201986 -0.428465 -0.109488 0
M  V30 16 C 1.407248 -0.633122 -0.814231 0
M  V30 17 C 2.434466 0.308533 -0.890065 0
M  V30 18 C 3.600775 0.018127 -1.606236 0
M  V30 19 C 4.646256 1.046722 -1.742086 0
M  V30 20 O 4.517586 1.849734 -2.662396 0
M  V30 21 N 5.718368 1.031986 -0.852520 0
M  V30 22 C 5.860875 0.097336 0.270414 0
M  V30 23 C 5.348248 0.704941 1.577305 0
M  V30 24 C 5.248003 -0.309670 2.716778 0
M  V30 25 C 6.592906 -0.884669 3.132535 0
M  V30 26 C 6.764359 2.041043 -1.024213 0
M  V30 27 C 7.873255 1.539856 -1.952182 0
M  V30 28 C 8.937427 2.597481 -2.248711 0
M  V30 29 C 9.742601 3.005705 -1.024775 0
M  V30 30 C 3.766470 -1.203044 -2.263199 0
M  V30 31 C 2.763482 -2.172880 -2.178601 0
M  V30 32 C 2.904212 -3.498656 -2.881929 0
M  V30 33 F 2.257431 -3.520761 -4.078781 0
M  V30 34 F 4.198616 -3.829683 -3.147509 0
M  V30 35 F 2.398116 -4.536657 -2.160143 0
M  V30 36 C 1.594151 -1.873875 -1.455407 0
M  V30 37 C 0.672976 1.261275 1.747927 0
M  V30 38 O 1.827158 1.484854 2.022616 0
M  V30 39 C -0.590336 1.755725 2.335826 0
M  V30 40 O -0.837863 2.536242 3.221253 0
M  V30 41 C -3.013938 -0.735328 -0.734521 0
M  V30 42 C -2.608857 -0.683887 -2.079669 0
M  V30 43 C -2.273031 -1.854236 -2.725210 0
M  V30 44 N -2.310240 -3.061000 -2.134324 0
M  V30 45 C -2.724247 -3.138288 -0.860760 0
M  V30 46 C -2.774827 -4.397067 -0.280881 0
M  V30 47 C -3.178797 -4.592401 1.042844 0
M  V30 48 C -3.539394 -3.500389 1.816511 0
M  V30 49 O -3.950684 -3.534370 3.118738 0
M  V30 50 C -3.984295 -4.807669 3.751754 0
M  V30 51 C -3.492290 -2.224574 1.247719 0
M  V30 52 C -3.092199 -2.007819 -0.095522 0
M  V30 53 H -10.369155 -0.159803 0.015053 0
M  V30 54 H -10.312688 1.691467 0.118985 0
M  V30 55 H -7.963966 -0.289589 0.137314 0
M  V30 56 H -8.183777 2.789249 0.414703 0
M  V30 57 H -6.758361 0.889951 2.081033 0
M  V30 58 H -6.846431 2.624876 2.215311 0
M  V30 59 H -3.917695 3.358229 0.178751 0
M  V30 60 H -5.157476 4.040907 1.192026 0
M  V30 61 H -5.269852 3.647682 -1.640179 0
M  V30 62 H -6.554108 4.266573 -0.600908 0
M  V30 63 H -7.307582 2.223600 -1.881644 0
M  V30 64 H -6.149779 0.062228 -1.437223 0
M  V30 65 H -4.979009 1.255088 -1.983114 0
M  V30 66 H -5.255245 -0.112740 0.638452 0
M  V30 67 H -2.982861 1.410055 -0.710518 0
M  V30 68 H -3.235433 1.342757 1.833845 0
M  V30 69 H -0.510529 -1.088952 -0.420347 0
M  V30 70 H 2.339662 1.290743 -0.438416 0
M  V30 71 H 5.319226 -0.827986 0.057474 0
M  V30 72 H 6.920019 -0.170206 0.353431 0
M  V30 73 H 5.994417 1.536980 1.881843 0
M  V30 74 H 4.356070 1.137546 1.411668 0
M  V30 75 H 4.574716 -1.126058 2.430320 0
M  V30 76 H 4.794639 0.184400 3.584353 0
M  V30 77 H 7.295028 -0.088480 3.399331 0
M  V30 78 H 7.036840 -1.484190 2.332317 0
M  V30 79 H 6.470109 -1.534667 4.004807 0
M  V30 80 H 6.320362 2.951951 -1.442383 0
M  V30 81 H 7.161367 2.301670 -0.038101 0
M  V30 82 H 7.430802 1.219275 -2.903840 0
M  V30 83 H 8.347475 0.649966 -1.520482 0
M  V30 84 H 8.469305 3.484775 -2.690504 0
M  V30 85 H 9.626725 2.195332 -3.000756 0
M  V30 86 H 9.120053 3.522911 -0.288933 0
M  V30 87 H 10.196013 2.133384 -0.543587 0
M  V30 88 H 10.547347 3.688583 -1.315615 0
M  V30 89 H 4.672301 -1.387007 -2.838867 0
M  V30 90 H 0.809805 -2.631143 -1.397765 0
M  V30 91 H -2.534753 0.256906 -2.617667 0
M  V30 92 H -1.946199 -1.852878 -3.761650 0
M  V30 93 H -2.490161 -5.260253 -0.879695 0
M  V30 94 H -3.195794 -5.606045 1.428319 0
M  V30 95 H -4.317984 -4.659483 4.783289 0
M  V30 96 H -4.702795 -5.472596 3.261221 0
M  V30 97 H -2.986916 -5.258472 3.785400 0
M  V30 98 H -3.768407 -1.388009 1.885428 0
M  V30 END ATOM
M  V30 BEGIN BOND
M  V30 1 2 1 2
M  V30 2 1 2 3
M  V30 3 1 3 4
M  V30 4 1 4 5
M  V30 5 1 5 6
M  V30 6 1 6 7
M  V30 7 1 7 8
M  V30 8 1 8 9
M  V30 9 1 9 10
M  V30 10 1 10 11
M  V30 11 1 11 12
M  V30 12 1 12 13
M  V30 13 2 13 14
M  V30 14 1 14 15
M  V30 15 1 15 16
M  V30 16 2 16 17
M  V30 17 1 17 18
M  V30 18 1 18 19
M  V30 19 2 19 20
M  V30 20 1 19 21
M  V30 21 1 21 22
M  V30 22 1 22 23
M  V30 23 1 23 24
M  V30 24 1 24 25
M  V30 25 1 21 26
M  V30 26 1 26 27
M  V30 27 1 27 28
M  V30 28 1 28 29
M  V30 29 2 18 30
M  V30 30 1 30 31
M  V30 31 1 31 32
M  V30 32 1 32 33
M  V30 33 1 32 34
M  V30 34 1 32 35
M  V30 35 2 31 36
M  V30 36 1 14 37
M  V30 37 2 37 38
M  V30 38 1 37 39
M  V30 39 2 39 40
M  V30 40 1 11 41
M  V30 41 2 41 42
M  V30 42 1 42 43
M  V30 43 2 43 44
M  V30 44 1 44 45
M  V30 45 2 45 46
M  V30 46 1 46 47
M  V30 47 2 47 48
M  V30 48 1 48 49
M  V30 49 1 49 50
M  V30 50 1 48 51
M  V30 51 2 51 52
M  V30 52 1 8 3
M  V30 53 1 39 13
M  V30 54 1 52 41
M  V30 55 1 10 5
M  V30 56 1 36 16
M  V30 57 1 52 45
M  V30 58 1 1 53
M  V30 59 1 1 54
M  V30 60 1 2 55
M  V30 61 1 3 56 CFG=1
M  V30 62 1 4 57
M  V30 63 1 4 58
M  V30 64 1 6 59
M  V30 65 1 6 60
M  V30 66 1 7 61
M  V30 67 1 7 62
M  V30 68 1 8 63 CFG=3
M  V30 69 1 9 64
M  V30 70 1 9 65
M  V30 71 1 10 66 CFG=1
M  V30 72 1 11 67 CFG=3
M  V30 73 1 12 68
M  V30 74 1 15 69
M  V30 75 1 17 70
M  V30 76 1 22 71
M  V30 77 1 22 72
M  V30 78 1 23 73
M  V30 79 1 23 74
M  V30 80 1 24 75
M  V30 81 1 24 76
M  V30 82 1 25 77
M  V30 83 1 25 78
M  V30 84 1 25 79
M  V30 85 1 26 80
M  V30 86 1 26 81
M  V30 87 1 27 82
M  V30 88 1 27 83
M  V30 89 1 28 84
M  V30 90 1 28 85
M  V30 91 1 29 86
M  V30 92 1 29 87
M  V30 93 1 29 88
M  V30 94 1 30 89
M  V30 95 1 36 90
M  V30 96 1 42 91
M  V30 97 1 43 92
M  V30 98 1 46 93
M  V30 99 1 47 94
M  V30 100 1 50 95
M  V30 101 1 50 96
M  V30 102 1 50 97
M  V30 103 1 51 98
M  V30 END BOND
M  V30 END CTAB
M  END
>  <catalyst_id>  (1) 
IFXVSXBNDOYGKI_SNDUSBECSA_NONE

>  <source_smiles>  (1) 
C=C[C@H]1CN2CC[C@H]1C[C@H]2[C@@H](Nc1c(Nc2cc(C(=O)N(CCCC)CCCC)cc(C(F)(F)F)c2)c(=O)c1=O)c1ccnc2ccc(OC)cc12

>  <axial_configuration>  (1) 
none

>  <inchikey>  (1) 
IFXVSXBNDOYGKI-SNDUSBECSA-N

>  <build_source>  (1) 
smiles

>  <rdkit_version>  (1) 
2025.09.6

>  <random_seed>  (1) 
42

>  <generated_at>  (1) 
2026-05-19T12:36:46

$$$$
