catalyst355
     RDKit          3D

  0  0  0  0  0  0  0  0  0  0999 V3000
M  V30 BEGIN CTAB
M  V30 COUNTS 117 119 0 0 0
M  V30 BEGIN ATOM
M  V30 1 C -1.233245 6.888482 -0.452746 0
M  V30 2 C -1.482894 5.715588 0.483109 0
M  V30 3 C -0.202610 4.914255 0.726328 0
M  V30 4 C -0.395042 3.762935 1.712285 0
M  V30 5 N -0.873348 2.513712 1.068189 0
M  V30 6 C -2.360459 2.352885 1.029022 0
M  V30 7 C -2.876592 2.160341 -0.396878 0
M  V30 8 C -4.399431 2.226018 -0.507043 0
M  V30 9 C -5.098661 1.066010 0.183022 0
M  V30 10 C -0.027202 1.471771 0.685197 0
M  V30 11 N -0.572725 0.218797 0.534692 0
M  V30 12 C 0.105518 -0.925999 -0.100310 0
M  V30 13 C -0.826834 -2.136807 -0.333471 0 CFG=2
M  V30 14 C -1.013266 -2.990735 0.942866 0
M  V30 15 C -1.709078 -2.240528 2.052695 0
M  V30 16 C -0.982140 -1.739516 3.141756 0
M  V30 17 C -1.623497 -1.003363 4.138405 0
M  V30 18 C -2.995143 -0.769944 4.061026 0
M  V30 19 C -3.728822 -1.276353 2.990090 0
M  V30 20 C -3.090027 -2.006910 1.988269 0
M  V30 21 N -0.280734 -2.961150 -1.424942 0
M  V30 22 C -0.992274 -3.857351 -2.152888 0
M  V30 23 S -0.282011 -5.316198 -2.527556 0
M  V30 24 N -2.274235 -3.615361 -2.514853 0
M  V30 25 C -2.879079 -2.412185 -2.934360 0
M  V30 26 C -4.266287 -2.412866 -3.106109 0
M  V30 27 C -4.942902 -1.256225 -3.527457 0
M  V30 28 C -6.449823 -1.252193 -3.652121 0
M  V30 29 F -7.044280 -0.830742 -2.502643 0
M  V30 30 F -6.967500 -2.480355 -3.919810 0
M  V30 31 F -6.896820 -0.426003 -4.634954 0
M  V30 32 C -4.204039 -0.089896 -3.781427 0
M  V30 33 C -2.809431 -0.077171 -3.635071 0
M  V30 34 C -2.003454 1.168029 -3.910452 0
M  V30 35 F -1.281206 1.090547 -5.057481 0
M  V30 36 F -1.099356 1.417243 -2.915634 0
M  V30 37 F -2.758566 2.295450 -4.001004 0
M  V30 38 C -2.157073 -1.252859 -3.227550 0
M  V30 39 N 1.304503 1.575350 0.451444 0 CHG=1
M  V30 40 C 2.229669 2.717911 0.295277 0
M  V30 41 C 3.709752 2.227321 0.285074 0 CFG=2
M  V30 42 C 4.231225 1.958784 -1.147089 0
M  V30 43 C 3.533295 0.873469 -1.932527 0
M  V30 44 C 3.976483 -0.454748 -1.871552 0
M  V30 45 C 3.369073 -1.441543 -2.651117 0
M  V30 46 C 2.316867 -1.114785 -3.501595 0
M  V30 47 C 1.876654 0.202968 -3.580470 0
M  V30 48 C 2.476146 1.191178 -2.797535 0
M  V30 49 N 3.921594 1.051903 1.179699 0
M  V30 50 C 3.916768 1.089312 2.550765 0
M  V30 51 S 3.474236 2.388368 3.503406 0
M  V30 52 N 4.355456 -0.019794 3.211028 0
M  V30 53 C 4.498100 -1.373499 2.853430 0
M  V30 54 C 3.921590 -1.958007 1.725933 0
M  V30 55 C 4.047093 -3.340723 1.486709 0
M  V30 56 C 3.405490 -3.976952 0.276636 0
M  V30 57 F 4.236716 -4.000239 -0.796306 0
M  V30 58 F 2.285369 -3.306639 -0.132418 0
M  V30 59 F 3.006486 -5.256898 0.489966 0
M  V30 60 C 4.789209 -4.127538 2.381127 0
M  V30 61 C 5.364469 -3.561457 3.525813 0
M  V30 62 C 6.170339 -4.407981 4.486352 0
M  V30 63 F 6.137358 -3.932861 5.760961 0
M  V30 64 F 5.731187 -5.693365 4.551117 0
M  V30 65 F 7.481748 -4.468011 4.135522 0
M  V30 66 C 5.205407 -2.184801 3.750888 0
M  V30 67 Cl 0.000000 0.000000 0.000000 0 CHG=-1
M  V30 68 H -0.872232 6.542765 -1.426689 0
M  V30 69 H -2.159675 7.448753 -0.613191 0
M  V30 70 H -0.490043 7.574282 -0.033766 0
M  V30 71 H -1.873308 6.093984 1.434844 0
M  V30 72 H -2.255743 5.077975 0.044908 0
M  V30 73 H 0.170908 4.540652 -0.231921 0
M  V30 74 H 0.556865 5.592405 1.134214 0
M  V30 75 H -1.105371 4.046661 2.499283 0
M  V30 76 H 0.517594 3.534565 2.264695 0
M  V30 77 H -2.825208 3.246274 1.461244 0
M  V30 78 H -2.636205 1.526987 1.691399 0
M  V30 79 H -2.446243 2.938022 -1.038961 0
M  V30 80 H -2.528922 1.205300 -0.801254 0
M  V30 81 H -4.672827 2.216700 -1.568634 0
M  V30 82 H -4.765456 3.173491 -0.095291 0
M  V30 83 H -4.951632 1.101281 1.266107 0
M  V30 84 H -6.175704 1.108574 -0.007831 0
M  V30 85 H -4.727189 0.105417 -0.187839 0
M  V30 86 H -1.505853 0.076078 0.898335 0
M  V30 87 H 0.474358 -0.572949 -1.067111 0
M  V30 88 H 0.952429 -1.222781 0.524823 0
M  V30 89 H -1.809244 -1.762865 -0.629862 0
M  V30 90 H -0.041655 -3.365256 1.290900 0
M  V30 91 H -1.603658 -3.887559 0.712832 0
M  V30 92 H 0.085813 -1.928022 3.231840 0
M  V30 93 H -1.059047 -0.631890 4.991270 0
M  V30 94 H -3.498718 -0.218202 4.852315 0
M  V30 95 H -4.804987 -1.119807 2.948567 0
M  V30 96 H -3.682662 -2.410166 1.168181 0
M  V30 97 H 0.658722 -3.314350 -1.247423 0
M  V30 98 H -2.782682 -4.459064 -2.769839 0
M  V30 99 H -4.841256 -3.315394 -2.896607 0
M  V30 100 H -4.725028 0.814561 -4.103250 0
M  V30 101 H -1.070983 -1.252821 -3.166759 0
M  V30 102 H 1.796993 0.695706 0.391708 0
M  V30 103 H 1.989900 3.248044 -0.629951 0
M  V30 104 H 2.118843 3.400985 1.131124 0
M  V30 105 H 4.332186 3.042137 0.678117 0
M  V30 106 H 4.185982 2.893375 -1.722628 0
M  V30 107 H 5.300184 1.710098 -1.094302 0
M  V30 108 H 4.834393 -0.729179 -1.261480 0
M  V30 109 H 3.743991 -2.462729 -2.631827 0
M  V30 110 H 1.866500 -1.881035 -4.129397 0
M  V30 111 H 1.087665 0.468314 -4.279963 0
M  V30 112 H 2.135547 2.218881 -2.908713 0
M  V30 113 H 4.656311 0.431725 0.854894 0
M  V30 114 H 4.559462 0.187620 4.187422 0
M  V30 115 H 3.323534 -1.370115 1.039056 0
M  V30 116 H 4.907712 -5.197432 2.193215 0
M  V30 117 H 5.657930 -1.748072 4.642464 0
M  V30 END ATOM
M  V30 BEGIN BOND
M  V30 1 1 1 2
M  V30 2 1 2 3
M  V30 3 1 3 4
M  V30 4 1 4 5
M  V30 5 1 5 6
M  V30 6 1 6 7
M  V30 7 1 7 8
M  V30 8 1 8 9
M  V30 9 1 5 10
M  V30 10 1 10 11
M  V30 11 1 11 12
M  V30 12 1 12 13
M  V30 13 1 13 14
M  V30 14 1 14 15
M  V30 15 2 15 16
M  V30 16 1 16 17
M  V30 17 2 17 18
M  V30 18 1 18 19
M  V30 19 2 19 20
M  V30 20 1 13 21
M  V30 21 1 21 22
M  V30 22 2 22 23
M  V30 23 1 22 24
M  V30 24 1 24 25
M  V30 25 2 25 26
M  V30 26 1 26 27
M  V30 27 1 27 28
M  V30 28 1 28 29
M  V30 29 1 28 30
M  V30 30 1 28 31
M  V30 31 2 27 32
M  V30 32 1 32 33
M  V30 33 1 33 34
M  V30 34 1 34 35
M  V30 35 1 34 36
M  V30 36 1 34 37
M  V30 37 2 33 38
M  V30 38 2 10 39
M  V30 39 1 39 40
M  V30 40 1 40 41
M  V30 41 1 41 42
M  V30 42 1 42 43
M  V30 43 2 43 44
M  V30 44 1 44 45
M  V30 45 2 45 46
M  V30 46 1 46 47
M  V30 47 2 47 48
M  V30 48 1 41 49
M  V30 49 1 49 50
M  V30 50 2 50 51
M  V30 51 1 50 52
M  V30 52 1 52 53
M  V30 53 2 53 54
M  V30 54 1 54 55
M  V30 55 1 55 56
M  V30 56 1 56 57
M  V30 57 1 56 58
M  V30 58 1 56 59
M  V30 59 2 55 60
M  V30 60 1 60 61
M  V30 61 1 61 62
M  V30 62 1 62 63
M  V30 63 1 62 64
M  V30 64 1 62 65
M  V30 65 2 61 66
M  V30 66 1 20 15
M  V30 67 1 38 25
M  V30 68 1 48 43
M  V30 69 1 66 53
M  V30 70 1 1 68
M  V30 71 1 1 69
M  V30 72 1 1 70
M  V30 73 1 2 71
M  V30 74 1 2 72
M  V30 75 1 3 73
M  V30 76 1 3 74
M  V30 77 1 4 75
M  V30 78 1 4 76
M  V30 79 1 6 77
M  V30 80 1 6 78
M  V30 81 1 7 79
M  V30 82 1 7 80
M  V30 83 1 8 81
M  V30 84 1 8 82
M  V30 85 1 9 83
M  V30 86 1 9 84
M  V30 87 1 9 85
M  V30 88 1 11 86
M  V30 89 1 12 87
M  V30 90 1 12 88
M  V30 91 1 13 89 CFG=3
M  V30 92 1 14 90
M  V30 93 1 14 91
M  V30 94 1 16 92
M  V30 95 1 17 93
M  V30 96 1 18 94
M  V30 97 1 19 95
M  V30 98 1 20 96
M  V30 99 1 21 97
M  V30 100 1 24 98
M  V30 101 1 26 99
M  V30 102 1 32 100
M  V30 103 1 38 101
M  V30 104 1 39 102
M  V30 105 1 40 103
M  V30 106 1 40 104
M  V30 107 1 41 105 CFG=1
M  V30 108 1 42 106
M  V30 109 1 42 107
M  V30 110 1 44 108
M  V30 111 1 45 109
M  V30 112 1 46 110
M  V30 113 1 47 111
M  V30 114 1 48 112
M  V30 115 1 49 113
M  V30 116 1 52 114
M  V30 117 1 54 115
M  V30 118 1 60 116
M  V30 119 1 66 117
M  V30 END BOND
M  V30 END CTAB
M  END
>  <catalyst_id>  (1) 
ULXYISRVKMNQPB_VRJWYGQHSA_NONE

>  <source_smiles>  (1) 
CCCCN(CCCC)C(NC[C@H](Cc1ccccc1)NC(=S)Nc1cc(C(F)(F)F)cc(C(F)(F)F)c1)=[NH+]C[C@H](Cc1ccccc1)NC(=S)Nc1cc(C(F)(F)F)cc(C(F)(F)F)c1.[Cl-]

>  <axial_configuration>  (1) 
none

>  <inchikey>  (1) 
ULXYISRVKMNQPB-VRJWYGQHSA-N

>  <build_source>  (1) 
smiles

>  <rdkit_version>  (1) 
2025.09.6

>  <random_seed>  (1) 
42

>  <generated_at>  (1) 
2026-05-19T12:31:55

$$$$
