catalyst262
     RDKit          3D

  0  0  0  0  0  0  0  0  0  0999 V3000
M  V30 BEGIN CTAB
M  V30 COUNTS 21 21 0 0 0
M  V30 BEGIN ATOM
M  V30 1 C -1.103222 -1.407221 -0.557186 0
M  V30 2 C -0.766388 -0.211233 0.344187 0
M  V30 3 C -1.015569 -0.549317 1.814298 0
M  V30 4 S -1.865895 1.181019 -0.148608 0
M  V30 5 C -0.588281 2.004665 -1.131611 0
M  V30 6 N 0.555006 1.109136 -1.202850 0
M  V30 7 C 0.626448 0.405117 0.103898 0 CFG=2
M  V30 8 C 1.773883 -0.605533 0.109913 0
M  V30 9 O 1.814107 -1.674745 0.696593 0
M  V30 10 O 2.868354 -0.166312 -0.556474 0
M  V30 11 H -0.926023 -1.197297 -1.618079 0
M  V30 12 H -2.152712 -1.706642 -0.447381 0
M  V30 13 H -0.499989 -2.282870 -0.295420 0
M  V30 14 H -0.372756 -1.372349 2.143981 0
M  V30 15 H -0.810991 0.305108 2.469899 0
M  V30 16 H -2.052209 -0.862847 1.985140 0
M  V30 17 H -0.965988 2.232734 -2.131804 0
M  V30 18 H -0.317665 2.944087 -0.638879 0
M  V30 19 H 1.420184 1.624829 -1.360065 0
M  V30 20 H 0.872742 1.134299 0.890264 0
M  V30 21 H 3.506963 -0.904628 -0.469815 0
M  V30 END ATOM
M  V30 BEGIN BOND
M  V30 1 1 1 2
M  V30 2 1 2 3
M  V30 3 1 2 4
M  V30 4 1 4 5
M  V30 5 1 5 6
M  V30 6 1 6 7
M  V30 7 1 7 8
M  V30 8 2 8 9
M  V30 9 1 8 10
M  V30 10 1 7 2
M  V30 11 1 1 11
M  V30 12 1 1 12
M  V30 13 1 1 13
M  V30 14 1 3 14
M  V30 15 1 3 15
M  V30 16 1 3 16
M  V30 17 1 5 17
M  V30 18 1 5 18
M  V30 19 1 6 19
M  V30 20 1 7 20 CFG=1
M  V30 21 1 10 21
M  V30 END BOND
M  V30 END CTAB
M  END
>  <catalyst_id>  (1) 
PMQQFSDIECYOQV_SCSAIBSYSA_NONE

>  <source_smiles>  (1) 
CC1(C)SCN[C@@H]1C(=O)O

>  <axial_configuration>  (1) 
none

>  <inchikey>  (1) 
PMQQFSDIECYOQV-SCSAIBSYSA-N

>  <build_source>  (1) 
smiles

>  <rdkit_version>  (1) 
2025.09.6

>  <random_seed>  (1) 
42

>  <generated_at>  (1) 
2026-05-19T12:29:44

$$$$
