catalyst364
     RDKit          3D

  0  0  0  0  0  0  0  0  0  0999 V3000
M  V30 BEGIN CTAB
M  V30 COUNTS 45 48 0 0 0
M  V30 BEGIN ATOM
M  V30 1 C 3.050080 2.637738 -0.523213 0
M  V30 2 C 2.197158 1.629947 -0.297684 0
M  V30 3 C 2.584360 0.170552 -0.344752 0 CFG=1
M  V30 4 C 2.239457 -0.561681 0.978734 0
M  V30 5 N 1.635154 -1.903676 0.749754 0
M  V30 6 C 2.539106 -2.639509 -0.175709 0
M  V30 7 C 2.568785 -1.988470 -1.571346 0
M  V30 8 C 1.903221 -0.599733 -1.503067 0 CFG=1
M  V30 9 C 0.412401 -0.810596 -1.160906 0
M  V30 10 C 0.304360 -1.753833 0.053664 0 CFG=2
M  V30 11 C -0.903241 -1.555772 1.037103 0 CFG=1
M  V30 12 O -0.602069 -2.272672 2.253452 0
M  V30 13 C -1.357230 -0.147114 1.377996 0
M  V30 14 C -0.877184 0.471249 2.540136 0
M  V30 15 C -1.276082 1.758508 2.835156 0
M  V30 16 N -2.116503 2.475350 2.066722 0
M  V30 17 C -2.614361 1.893250 0.967216 0
M  V30 18 C -3.499561 2.635918 0.196211 0
M  V30 19 C -4.081277 2.125985 -0.965292 0
M  V30 20 C -3.766686 0.838428 -1.358322 0
M  V30 21 O -4.301041 0.283588 -2.481811 0
M  V30 22 C -2.884330 0.066802 -0.610391 0
M  V30 23 C -2.280249 0.575192 0.566512 0
M  V30 24 H 2.713432 3.669142 -0.470477 0
M  V30 25 H 4.093862 2.464472 -0.765431 0
M  V30 26 H 1.163379 1.874389 -0.056289 0
M  V30 27 H 3.671988 0.104946 -0.493924 0
M  V30 28 H 3.158943 -0.687841 1.566121 0
M  V30 29 H 1.587283 0.038916 1.615883 0
M  V30 30 H 2.217302 -3.684980 -0.258526 0
M  V30 31 H 3.551004 -2.678146 0.247574 0
M  V30 32 H 3.605628 -1.898427 -1.915757 0
M  V30 33 H 2.039672 -2.620431 -2.294885 0
M  V30 34 H 2.010548 -0.072126 -2.457212 0
M  V30 35 H -0.052428 0.160186 -0.985876 0
M  V30 36 H -0.102901 -1.260965 -2.018181 0
M  V30 37 H 0.101637 -2.757943 -0.353198 0
M  V30 38 H -1.763709 -2.097245 0.628616 0
M  V30 39 H 0.355493 -2.476228 2.185083 0
M  V30 40 H -0.202587 -0.045232 3.216285 0
M  V30 41 H -0.918307 2.263131 3.727962 0
M  V30 42 H -3.745574 3.646738 0.515153 0
M  V30 43 H -4.767117 2.745649 -1.533273 0
M  V30 44 H -4.915659 0.920591 -2.883182 0
M  V30 45 H -2.676158 -0.938049 -0.964907 0
M  V30 END ATOM
M  V30 BEGIN BOND
M  V30 1 2 1 2
M  V30 2 1 2 3
M  V30 3 1 3 4
M  V30 4 1 4 5
M  V30 5 1 5 6
M  V30 6 1 6 7
M  V30 7 1 7 8
M  V30 8 1 8 9
M  V30 9 1 9 10
M  V30 10 1 10 11
M  V30 11 1 11 12
M  V30 12 1 11 13
M  V30 13 2 13 14
M  V30 14 1 14 15
M  V30 15 2 15 16
M  V30 16 1 16 17
M  V30 17 2 17 18
M  V30 18 1 18 19
M  V30 19 2 19 20
M  V30 20 1 20 21
M  V30 21 1 20 22
M  V30 22 2 22 23
M  V30 23 1 8 3
M  V30 24 1 23 13
M  V30 25 1 10 5
M  V30 26 1 23 17
M  V30 27 1 1 24
M  V30 28 1 1 25
M  V30 29 1 2 26
M  V30 30 1 3 27 CFG=3
M  V30 31 1 4 28
M  V30 32 1 4 29
M  V30 33 1 6 30
M  V30 34 1 6 31
M  V30 35 1 7 32
M  V30 36 1 7 33
M  V30 37 1 8 34 CFG=3
M  V30 38 1 9 35
M  V30 39 1 9 36
M  V30 40 1 10 37 CFG=3
M  V30 41 1 11 38 CFG=3
M  V30 42 1 12 39
M  V30 43 1 14 40
M  V30 44 1 15 41
M  V30 45 1 18 42
M  V30 46 1 19 43
M  V30 47 1 21 44
M  V30 48 1 22 45
M  V30 END BOND
M  V30 END CTAB
M  END
>  <catalyst_id>  (1) 
VJFMSYZSFUWQPZ_WXPXUSHHSA_NONE

>  <source_smiles>  (1) 
C=C[C@H]1CN2CC[C@H]1C[C@@H]2[C@@H](O)c1ccnc2ccc(O)cc12

>  <axial_configuration>  (1) 
none

>  <inchikey>  (1) 
VJFMSYZSFUWQPZ-WXPXUSHHSA-N

>  <build_source>  (1) 
smiles

>  <rdkit_version>  (1) 
2025.09.6

>  <random_seed>  (1) 
42

>  <generated_at>  (1) 
2026-05-19T12:30:18

$$$$
