catalyst216
     RDKit          3D

  0  0  0  0  0  0  0  0  0  0999 V3000
M  V30 BEGIN CTAB
M  V30 COUNTS 79 81 0 0 0
M  V30 BEGIN ATOM
M  V30 1 C 1.828505 -4.050575 -1.792685 0
M  V30 2 C 2.251580 -4.020039 -0.329519 0
M  V30 3 C 1.122203 -3.699385 0.681383 0 CFG=2
M  V30 4 C 0.074206 -4.822887 0.669776 0
M  V30 5 C 0.476872 -2.299193 0.455040 0 CFG=1
M  V30 6 C -0.628618 -1.936557 1.461340 0
M  V30 7 P -1.553574 -0.380971 1.161344 0 CHG=1
M  V30 8 C -0.652098 0.843475 2.141836 0
M  V30 9 C -1.158196 2.264439 2.219108 0
M  V30 10 C -2.370231 2.563844 2.851555 0
M  V30 11 C -2.829662 3.880448 2.926803 0
M  V30 12 C -2.074513 4.916894 2.384216 0
M  V30 13 C -0.854455 4.638129 1.774348 0
M  V30 14 C -0.396236 3.321415 1.698503 0
M  V30 15 C -3.185543 -0.572245 1.834796 0
M  V30 16 C -3.391983 -1.299686 3.014316 0
M  V30 17 C -4.672270 -1.438495 3.553605 0
M  V30 18 C -5.762789 -0.844524 2.923709 0
M  V30 19 C -5.571765 -0.107411 1.758198 0
M  V30 20 C -4.291146 0.030112 1.220187 0
M  V30 21 C -1.574986 -0.065929 -0.580090 0
M  V30 22 C -0.894466 1.007923 -1.160986 0
M  V30 23 C -0.888746 1.190539 -2.545634 0
M  V30 24 C -1.566987 0.298373 -3.370715 0
M  V30 25 C -2.257532 -0.771781 -2.810301 0
M  V30 26 C -2.261623 -0.950266 -1.426225 0
M  V30 27 N 1.451863 -1.212069 0.284154 0
M  V30 28 C 2.430188 -0.730030 1.101378 0
M  V30 29 S 2.809469 -1.269089 2.635433 0
M  V30 30 N 3.127017 0.357889 0.643146 0
M  V30 31 C 3.258611 0.922179 -0.641030 0
M  V30 32 C 2.990306 0.234670 -1.827323 0
M  V30 33 C 3.125063 0.863440 -3.076151 0
M  V30 34 C 2.804627 0.126251 -4.355730 0
M  V30 35 F 3.832927 0.165354 -5.246980 0
M  V30 36 F 1.730859 0.661296 -4.999845 0
M  V30 37 F 2.516111 -1.190988 -4.173012 0
M  V30 38 C 3.560196 2.197097 -3.123364 0
M  V30 39 C 3.869789 2.893894 -1.946262 0
M  V30 40 C 4.372855 4.317154 -1.993822 0
M  V30 41 F 3.879499 5.081755 -0.980738 0
M  V30 42 F 5.727353 4.389049 -1.895554 0
M  V30 43 F 4.041593 4.964295 -3.144692 0
M  V30 44 C 3.730785 2.237141 -0.712166 0
M  V30 45 Br 0.000000 0.000000 0.000000 0 CHG=-1
M  V30 46 H 1.052540 -4.800072 -1.971995 0
M  V30 47 H 2.687602 -4.307499 -2.421289 0
M  V30 48 H 1.456918 -3.078463 -2.128069 0
M  V30 49 H 3.067874 -3.297507 -0.217688 0
M  V30 50 H 2.685024 -4.995970 -0.075785 0
M  V30 51 H 1.578954 -3.725282 1.676522 0
M  V30 52 H 0.554466 -5.807246 0.687731 0
M  V30 53 H -0.569399 -4.769718 1.553457 0
M  V30 54 H -0.564251 -4.771022 -0.217939 0
M  V30 55 H -0.012505 -2.354371 -0.523515 0
M  V30 56 H -1.390195 -2.722420 1.428035 0
M  V30 57 H -0.241549 -1.917029 2.484547 0
M  V30 58 H 0.373778 0.870498 1.769106 0
M  V30 59 H -0.578490 0.465486 3.169485 0
M  V30 60 H -2.969471 1.777775 3.303948 0
M  V30 61 H -3.776829 4.094269 3.415116 0
M  V30 62 H -2.432786 5.940816 2.445256 0
M  V30 63 H -0.256983 5.446656 1.361682 0
M  V30 64 H 0.566613 3.129483 1.231167 0
M  V30 65 H -2.553253 -1.759866 3.530323 0
M  V30 66 H -4.817093 -2.007498 4.468296 0
M  V30 67 H -6.759321 -0.950569 3.343706 0
M  V30 68 H -6.418043 0.366926 1.268281 0
M  V30 69 H -4.159732 0.626959 0.320162 0
M  V30 70 H -0.350975 1.715847 -0.547019 0
M  V30 71 H -0.357084 2.033176 -2.980413 0
M  V30 72 H -1.562052 0.440659 -4.448339 0
M  V30 73 H -2.794283 -1.468141 -3.449373 0
M  V30 74 H -2.803483 -1.794005 -1.002699 0
M  V30 75 H 1.159188 -0.550487 -0.421577 0
M  V30 76 H 3.653085 0.810561 1.385147 0
M  V30 77 H 2.715138 -0.818005 -1.809337 0
M  V30 78 H 3.669670 2.691702 -4.090502 0
M  V30 79 H 3.971872 2.779420 0.202225 0
M  V30 END ATOM
M  V30 BEGIN BOND
M  V30 1 1 1 2
M  V30 2 1 2 3
M  V30 3 1 3 4
M  V30 4 1 3 5
M  V30 5 1 5 6
M  V30 6 1 6 7
M  V30 7 1 7 8
M  V30 8 1 8 9
M  V30 9 2 9 10
M  V30 10 1 10 11
M  V30 11 2 11 12
M  V30 12 1 12 13
M  V30 13 2 13 14
M  V30 14 1 7 15
M  V30 15 2 15 16
M  V30 16 1 16 17
M  V30 17 2 17 18
M  V30 18 1 18 19
M  V30 19 2 19 20
M  V30 20 1 7 21
M  V30 21 2 21 22
M  V30 22 1 22 23
M  V30 23 2 23 24
M  V30 24 1 24 25
M  V30 25 2 25 26
M  V30 26 1 5 27
M  V30 27 1 27 28
M  V30 28 2 28 29
M  V30 29 1 28 30
M  V30 30 1 30 31
M  V30 31 2 31 32
M  V30 32 1 32 33
M  V30 33 1 33 34
M  V30 34 1 34 35
M  V30 35 1 34 36
M  V30 36 1 34 37
M  V30 37 2 33 38
M  V30 38 1 38 39
M  V30 39 1 39 40
M  V30 40 1 40 41
M  V30 41 1 40 42
M  V30 42 1 40 43
M  V30 43 2 39 44
M  V30 44 1 14 9
M  V30 45 1 20 15
M  V30 46 1 26 21
M  V30 47 1 44 31
M  V30 48 1 1 46
M  V30 49 1 1 47
M  V30 50 1 1 48
M  V30 51 1 2 49
M  V30 52 1 2 50
M  V30 53 1 3 51 CFG=1
M  V30 54 1 4 52
M  V30 55 1 4 53
M  V30 56 1 4 54
M  V30 57 1 5 55 CFG=3
M  V30 58 1 6 56
M  V30 59 1 6 57
M  V30 60 1 8 58
M  V30 61 1 8 59
M  V30 62 1 10 60
M  V30 63 1 11 61
M  V30 64 1 12 62
M  V30 65 1 13 63
M  V30 66 1 14 64
M  V30 67 1 16 65
M  V30 68 1 17 66
M  V30 69 1 18 67
M  V30 70 1 19 68
M  V30 71 1 20 69
M  V30 72 1 22 70
M  V30 73 1 23 71
M  V30 74 1 24 72
M  V30 75 1 25 73
M  V30 76 1 26 74
M  V30 77 1 27 75
M  V30 78 1 30 76
M  V30 79 1 32 77
M  V30 80 1 38 78
M  V30 81 1 44 79
M  V30 END BOND
M  V30 END CTAB
M  END
>  <catalyst_id>  (1) 
NJSFGEHTZUOBRA_UXKOITPWSA_NONE

>  <source_smiles>  (1) 
CC[C@H](C)[C@@H](C[P+](Cc1ccccc1)(c1ccccc1)c1ccccc1)NC(=S)Nc1cc(C(F)(F)F)cc(C(F)(F)F)c1.[Br-]

>  <axial_configuration>  (1) 
none

>  <inchikey>  (1) 
NJSFGEHTZUOBRA-UXKOITPWSA-N

>  <build_source>  (1) 
smiles

>  <rdkit_version>  (1) 
2025.09.6

>  <random_seed>  (1) 
42

>  <generated_at>  (1) 
2026-05-19T12:37:01

$$$$
