catalyst70
     RDKit          3D

  0  0  0  0  0  0  0  0  0  0999 V3000
M  V30 BEGIN CTAB
M  V30 COUNTS 103 109 0 0 0
M  V30 BEGIN ATOM
M  V30 1 C 7.772262 4.396261 1.349940 0
M  V30 2 C 7.829822 3.015664 0.772301 0
M  V30 3 O 8.675058 2.631024 -0.023092 0
M  V30 4 O 6.813387 2.259802 1.266799 0
M  V30 5 C 6.765586 0.919824 0.743476 0
M  V30 6 C 5.539193 0.209155 1.334378 0 CFG=1
M  V30 7 O 4.361682 0.844450 0.814725 0
M  V30 8 C 3.178485 0.328645 1.415514 0 CFG=1
M  V30 9 N 2.116100 1.181891 0.929835 0
M  V30 10 C 1.007775 1.592566 1.600751 0
M  V30 11 S 0.696744 1.359997 3.224778 0
M  V30 12 N 0.066146 2.246670 0.873608 0
M  V30 13 C -0.041178 2.440814 -0.577610 0 CFG=2
M  V30 14 C 0.851045 3.598617 -1.052048 0
M  V30 15 C 0.727169 3.812793 -2.558880 0
M  V30 16 C -0.721228 4.027434 -2.988540 0
M  V30 17 C -1.635260 2.901577 -2.502200 0
M  V30 18 C -1.528026 2.723176 -0.978583 0 CFG=1
M  V30 19 N -2.458491 1.744099 -0.378644 0
M  V30 20 C -3.833747 2.256955 -0.268813 0
M  V30 21 C -4.746797 1.299006 0.473725 0
M  V30 22 C -5.114569 1.574220 1.794469 0
M  V30 23 C -5.862667 0.653298 2.520412 0
M  V30 24 C -6.218075 -0.581479 1.965593 0
M  V30 25 C -6.924385 -1.514323 2.743999 0
M  V30 26 C -7.253286 -2.770529 2.239875 0
M  V30 27 C -6.869938 -3.113785 0.952233 0
M  V30 28 C -6.172885 -2.193271 0.165737 0
M  V30 29 C -5.846630 -0.895133 0.632720 0
M  V30 30 C -5.150989 0.087072 -0.144929 0
M  V30 31 C -4.752738 -0.142178 -1.568210 0
M  V30 32 C -3.371898 -0.074843 -1.899084 0
M  V30 33 C -2.950157 -0.377012 -3.198215 0
M  V30 34 C -3.878460 -0.678987 -4.189298 0
M  V30 35 C -5.250980 -0.653696 -3.919693 0
M  V30 36 C -6.167421 -0.903973 -4.955326 0
M  V30 37 C -7.540947 -0.850848 -4.729248 0
M  V30 38 C -8.015610 -0.538195 -3.464365 0
M  V30 39 C -7.114993 -0.294230 -2.424662 0
M  V30 40 C -5.711382 -0.364886 -2.609756 0
M  V30 41 C -2.346808 0.351537 -0.859463 0
M  V30 42 C 3.001889 -1.141244 0.987849 0 CFG=2
M  V30 43 O 1.830267 -1.728061 1.596216 0
M  V30 44 C 0.714878 -1.770214 0.816626 0
M  V30 45 C -0.422505 -2.380408 1.577123 0
M  V30 46 O 0.639318 -1.376249 -0.339234 0
M  V30 47 C 4.227396 -1.951432 1.441715 0 CFG=1
M  V30 48 O 4.095215 -3.266156 0.839226 0
M  V30 49 C 4.515062 -4.331548 1.570317 0
M  V30 50 C 4.288208 -5.599454 0.806541 0
M  V30 51 O 5.018197 -4.273502 2.683091 0
M  V30 52 C 5.542126 -1.287616 0.979097 0 CFG=2
M  V30 53 O 6.669171 -1.887285 1.657004 0
M  V30 54 C 7.323501 -2.887067 1.006850 0
M  V30 55 C 8.445717 -3.403024 1.853537 0
M  V30 56 O 7.042599 -3.308448 -0.105418 0
M  V30 57 H 8.585465 4.997558 0.933428 0
M  V30 58 H 7.893206 4.349300 2.435038 0
M  V30 59 H 6.821908 4.868247 1.088215 0
M  V30 60 H 7.689364 0.402574 1.024913 0
M  V30 61 H 6.680028 0.969151 -0.348814 0
M  V30 62 H 5.561473 0.349507 2.423915 0
M  V30 63 H 3.247362 0.414004 2.505025 0
M  V30 64 H 2.179981 1.392907 -0.051122 0
M  V30 65 H -0.797764 2.403666 1.385460 0
M  V30 66 H 0.304749 1.518675 -1.058755 0
M  V30 67 H 1.901050 3.411750 -0.802078 0
M  V30 68 H 0.573091 4.521371 -0.526115 0
M  V30 69 H 1.136947 2.941131 -3.084018 0
M  V30 70 H 1.330439 4.677348 -2.858052 0
M  V30 71 H -1.080704 4.984868 -2.591622 0
M  V30 72 H -0.773525 4.096427 -4.081044 0
M  V30 73 H -1.347003 1.979177 -3.016399 0
M  V30 74 H -2.664754 3.132310 -2.796742 0
M  V30 75 H -1.771121 3.694730 -0.521897 0
M  V30 76 H -4.269714 2.498761 -1.246489 0
M  V30 77 H -3.817100 3.207494 0.280643 0
M  V30 78 H -4.802062 2.499139 2.273415 0
M  V30 79 H -6.133445 0.895494 3.546126 0
M  V30 80 H -7.216301 -1.270511 3.763557 0
M  V30 81 H -7.795673 -3.481249 2.857208 0
M  V30 82 H -7.107134 -4.096447 0.553402 0
M  V30 83 H -5.876633 -2.510348 -0.832198 0
M  V30 84 H -1.892044 -0.368517 -3.450375 0
M  V30 85 H -3.516887 -0.905306 -5.190327 0
M  V30 86 H -5.814250 -1.135187 -5.958266 0
M  V30 87 H -8.235717 -1.042840 -5.542209 0
M  V30 88 H -9.084873 -0.480530 -3.278956 0
M  V30 89 H -7.529814 -0.037504 -1.451735 0
M  V30 90 H -2.435274 -0.321747 0.003685 0
M  V30 91 H -1.342100 0.146673 -1.241391 0
M  V30 92 H 2.946572 -1.212608 -0.107376 0
M  V30 93 H -0.135419 -3.369285 1.943774 0
M  V30 94 H -0.707854 -1.730588 2.407143 0
M  V30 95 H -1.281726 -2.497913 0.910616 0
M  V30 96 H 4.209101 -2.048854 2.535287 0
M  V30 97 H 4.880522 -5.589737 -0.111728 0
M  V30 98 H 4.602146 -6.451048 1.416840 0
M  V30 99 H 3.225057 -5.709493 0.578286 0
M  V30 100 H 5.637091 -1.398203 -0.109450 0
M  V30 101 H 9.167210 -2.603450 2.038909 0
M  V30 102 H 8.952760 -4.216166 1.326343 0
M  V30 103 H 8.051421 -3.792208 2.795512 0
M  V30 END ATOM
M  V30 BEGIN BOND
M  V30 1 1 1 2
M  V30 2 2 2 3
M  V30 3 1 2 4
M  V30 4 1 4 5
M  V30 5 1 5 6
M  V30 6 1 6 7
M  V30 7 1 7 8
M  V30 8 1 8 9
M  V30 9 1 9 10
M  V30 10 2 10 11
M  V30 11 1 10 12
M  V30 12 1 12 13
M  V30 13 1 13 14
M  V30 14 1 14 15
M  V30 15 1 15 16
M  V30 16 1 16 17
M  V30 17 1 17 18
M  V30 18 1 18 19
M  V30 19 1 19 20
M  V30 20 1 20 21
M  V30 21 2 21 22
M  V30 22 1 22 23
M  V30 23 2 23 24
M  V30 24 1 24 25
M  V30 25 2 25 26
M  V30 26 1 26 27
M  V30 27 2 27 28
M  V30 28 1 28 29
M  V30 29 2 29 30
M  V30 30 1 30 31
M  V30 31 2 31 32
M  V30 32 1 32 33
M  V30 33 2 33 34
M  V30 34 1 34 35
M  V30 35 2 35 36
M  V30 36 1 36 37
M  V30 37 2 37 38
M  V30 38 1 38 39
M  V30 39 2 39 40
M  V30 40 1 32 41
M  V30 41 1 8 42
M  V30 42 1 42 43
M  V30 43 1 43 44
M  V30 44 1 44 45
M  V30 45 2 44 46
M  V30 46 1 42 47
M  V30 47 1 47 48
M  V30 48 1 48 49
M  V30 49 1 49 50
M  V30 50 2 49 51
M  V30 51 1 47 52
M  V30 52 1 52 53
M  V30 53 1 53 54
M  V30 54 1 54 55
M  V30 55 2 54 56
M  V30 56 1 52 6
M  V30 57 1 18 13
M  V30 58 1 41 19
M  V30 59 1 30 21
M  V30 60 1 40 31
M  V30 61 1 29 24
M  V30 62 1 40 35
M  V30 63 1 1 57
M  V30 64 1 1 58
M  V30 65 1 1 59
M  V30 66 1 5 60
M  V30 67 1 5 61
M  V30 68 1 6 62 CFG=1
M  V30 69 1 8 63 CFG=1
M  V30 70 1 9 64
M  V30 71 1 12 65
M  V30 72 1 13 66 CFG=3
M  V30 73 1 14 67
M  V30 74 1 14 68
M  V30 75 1 15 69
M  V30 76 1 15 70
M  V30 77 1 16 71
M  V30 78 1 16 72
M  V30 79 1 17 73
M  V30 80 1 17 74
M  V30 81 1 18 75 CFG=1
M  V30 82 1 20 76
M  V30 83 1 20 77
M  V30 84 1 22 78
M  V30 85 1 23 79
M  V30 86 1 25 80
M  V30 87 1 26 81
M  V30 88 1 27 82
M  V30 89 1 28 83
M  V30 90 1 33 84
M  V30 91 1 34 85
M  V30 92 1 36 86
M  V30 93 1 37 87
M  V30 94 1 38 88
M  V30 95 1 39 89
M  V30 96 1 41 90
M  V30 97 1 41 91
M  V30 98 1 42 92 CFG=3
M  V30 99 1 45 93
M  V30 100 1 45 94
M  V30 101 1 45 95
M  V30 102 1 47 96 CFG=1
M  V30 103 1 50 97
M  V30 104 1 50 98
M  V30 105 1 50 99
M  V30 106 1 52 100 CFG=3
M  V30 107 1 55 101
M  V30 108 1 55 102
M  V30 109 1 55 103
M  V30 END BOND
M  V30 END CTAB
M  END
>  <catalyst_id>  (1) 
GACABSBYFIMBBQ_DSOGEFQVSA_S

>  <source_smiles>  (1) 
CC(=O)OC[C@H]1O[C@@H](NC(=S)N[C@@H]2CCCC[C@H]2N2Cc3ccc4ccccc4c3-c3c(ccc4ccccc34)C2)[C@H](OC(C)=O)[C@@H](OC(C)=O)[C@@H]1OC(C)=O

>  <axial_configuration>  (1) 
S

>  <inchikey>  (1) 
GACABSBYFIMBBQ-DSOGEFQVSA-N

>  <build_source>  (1) 
smiles+axial_bridged

>  <final_biaryl_angle_deg>  (1) 
-120.36

>  <n_valid_conformers>  (1) 
10

>  <rdkit_version>  (1) 
2025.09.6

>  <random_seed>  (1) 
42

>  <generated_at>  (1) 
2026-05-19T12:36:36

$$$$
