catalyst253
     RDKit          3D

  0  0  0  0  0  0  0  0  0  0999 V3000
M  V30 BEGIN CTAB
M  V30 COUNTS 113 120 0 0 0
M  V30 BEGIN ATOM
M  V30 1 C 10.103014 -2.077388 -1.360887 0
M  V30 2 C 8.678991 -2.537966 -1.302768 0
M  V30 3 O 8.325965 -3.705988 -1.370257 0
M  V30 4 O 7.849627 -1.468925 -1.153224 0
M  V30 5 C 6.460474 -1.810637 -1.079743 0
M  V30 6 C 5.596559 -0.551836 -0.893100 0 CFG=1
M  V30 7 O 4.230906 -0.951585 -1.038848 0
M  V30 8 C 3.335578 0.152744 -1.003237 0 CFG=1
M  V30 9 N 2.049138 -0.428010 -1.309910 0
M  V30 10 C 1.047607 0.080749 -2.073682 0
M  V30 11 S 1.111279 1.490519 -2.963311 0
M  V30 12 N -0.118679 -0.623083 -2.074682 0
M  V30 13 C -0.573112 -1.614037 -1.074593 0 CFG=2
M  V30 14 C 0.120824 -2.958443 -1.288139 0
M  V30 15 C 0.608545 -3.678729 -0.185626 0
M  V30 16 C 1.244146 -4.908006 -0.364658 0
M  V30 17 C 1.400031 -5.433288 -1.645384 0
M  V30 18 C 0.918165 -4.732273 -2.748574 0
M  V30 19 C 0.280070 -3.503775 -2.572302 0
M  V30 20 C -2.150713 -1.771002 -1.108744 0 CFG=1
M  V30 21 C -2.670399 -2.594049 0.071671 0
M  V30 22 C -3.353685 -3.798755 -0.174610 0
M  V30 23 C -3.825170 -4.586213 0.877656 0
M  V30 24 C -3.618206 -4.185403 2.194139 0
M  V30 25 C -2.931180 -3.003835 2.458471 0
M  V30 26 C -2.454166 -2.218037 1.406789 0
M  V30 27 N -2.876320 -0.493146 -1.365218 0
M  V30 28 C -2.643063 0.589577 -0.397669 0
M  V30 29 C -3.310644 1.886834 -0.827329 0
M  V30 30 C -2.543931 2.915639 -1.380670 0
M  V30 31 C -3.157449 4.064306 -1.868998 0
M  V30 32 C -4.550937 4.193254 -1.863172 0
M  V30 33 C -5.143769 5.341955 -2.414384 0
M  V30 34 C -6.528654 5.481706 -2.468661 0
M  V30 35 C -7.339221 4.467509 -1.981485 0
M  V30 36 C -6.762419 3.322848 -1.425772 0
M  V30 37 C -5.358116 3.158026 -1.325161 0
M  V30 38 C -4.723254 2.011582 -0.746192 0
M  V30 39 C -5.490728 0.885593 -0.129547 0
M  V30 40 C -5.319698 -0.418437 -0.671687 0
M  V30 41 C -6.069232 -1.485648 -0.168491 0
M  V30 42 C -6.940561 -1.295385 0.899186 0
M  V30 43 C -7.062279 -0.044921 1.514090 0
M  V30 44 C -7.906266 0.102171 2.628114 0
M  V30 45 C -8.020496 1.323424 3.288260 0
M  V30 46 C -7.283291 2.411997 2.847347 0
M  V30 47 C -6.445071 2.280127 1.737494 0
M  V30 48 C -6.323845 1.061564 1.023208 0
M  V30 49 C -4.290227 -0.671317 -1.762355 0
M  V30 50 C 3.367273 0.787012 0.399108 0 CFG=2
M  V30 51 O 2.525596 1.961880 0.461946 0
M  V30 52 C 1.282703 1.790087 0.986562 0
M  V30 53 C 0.556967 3.100490 1.014029 0
M  V30 54 O 0.818143 0.739055 1.405234 0
M  V30 55 C 4.800674 1.235360 0.722002 0 CFG=1
M  V30 56 O 4.806130 1.611378 2.126142 0
M  V30 57 C 5.574380 2.672093 2.486788 0
M  V30 58 C 5.455906 2.912859 3.960078 0
M  V30 59 O 6.272313 3.332998 1.731402 0
M  V30 60 C 5.827303 0.110012 0.480321 0 CFG=2
M  V30 61 O 7.157181 0.674850 0.487123 0
M  V30 62 C 7.873865 0.567386 1.636267 0
M  V30 63 C 9.215186 1.211352 1.466273 0
M  V30 64 O 7.485514 0.038604 2.667539 0
M  V30 65 H 10.386612 -1.631465 -0.404518 0
M  V30 66 H 10.753399 -2.934773 -1.556259 0
M  V30 67 H 10.228022 -1.357560 -2.173820 0
M  V30 68 H 6.163208 -2.315313 -2.008029 0
M  V30 69 H 6.287020 -2.508071 -0.250118 0
M  V30 70 H 5.858989 0.156307 -1.691180 0
M  V30 71 H 3.608485 0.881006 -1.773936 0
M  V30 72 H 1.985609 -1.403593 -1.061886 0
M  V30 73 H -0.880939 -0.154859 -2.557826 0
M  V30 74 H -0.264038 -1.211942 -0.102471 0
M  V30 75 H 0.491543 -3.288723 0.823931 0
M  V30 76 H 1.615653 -5.457219 0.496696 0
M  V30 77 H 1.897392 -6.389721 -1.783798 0
M  V30 78 H 1.042232 -5.140513 -3.748255 0
M  V30 79 H -0.082994 -2.966385 -3.446173 0
M  V30 80 H -2.338053 -2.365863 -2.015592 0
M  V30 81 H -3.520275 -4.137588 -1.195116 0
M  V30 82 H -4.351346 -5.513720 0.668242 0
M  V30 83 H -3.986346 -4.795566 3.014325 0
M  V30 84 H -2.762652 -2.691570 3.485964 0
M  V30 85 H -1.904712 -1.312255 1.651714 0
M  V30 86 H -1.570882 0.783377 -0.290738 0
M  V30 87 H -2.988871 0.340425 0.611099 0
M  V30 88 H -1.464594 2.820851 -1.456400 0
M  V30 89 H -2.532437 4.846675 -2.295142 0
M  V30 90 H -4.524401 6.138967 -2.820921 0
M  V30 91 H -6.970418 6.374201 -2.903056 0
M  V30 92 H -8.420945 4.557735 -2.033482 0
M  V30 93 H -7.435222 2.544084 -1.072027 0
M  V30 94 H -5.963032 -2.482319 -0.588546 0
M  V30 95 H -7.498300 -2.151358 1.273190 0
M  V30 96 H -8.478495 -0.745574 2.999378 0
M  V30 97 H -8.674437 1.418388 4.150630 0
M  V30 98 H -7.352879 3.366071 3.362887 0
M  V30 99 H -5.871989 3.154593 1.435578 0
M  V30 100 H -4.503934 0.010303 -2.597289 0
M  V30 101 H -4.450104 -1.663093 -2.205440 0
M  V30 102 H 3.063372 0.053720 1.159029 0
M  V30 103 H -0.486849 2.930236 1.292509 0
M  V30 104 H 0.576267 3.560358 0.022884 0
M  V30 105 H 1.018630 3.761450 1.751433 0
M  V30 106 H 5.046164 2.113987 0.110562 0
M  V30 107 H 5.825851 2.042972 4.508400 0
M  V30 108 H 6.059961 3.782314 4.234703 0
M  V30 109 H 4.414223 3.117802 4.219605 0
M  V30 110 H 5.716190 -0.648422 1.266521 0
M  V30 111 H 9.093837 2.288479 1.329151 0
M  V30 112 H 9.733479 0.771051 0.610727 0
M  V30 113 H 9.817735 1.034692 2.361763 0
M  V30 END ATOM
M  V30 BEGIN BOND
M  V30 1 1 1 2
M  V30 2 2 2 3
M  V30 3 1 2 4
M  V30 4 1 4 5
M  V30 5 1 5 6
M  V30 6 1 6 7
M  V30 7 1 7 8
M  V30 8 1 8 9
M  V30 9 1 9 10
M  V30 10 2 10 11
M  V30 11 1 10 12
M  V30 12 1 12 13
M  V30 13 1 13 14
M  V30 14 2 14 15
M  V30 15 1 15 16
M  V30 16 2 16 17
M  V30 17 1 17 18
M  V30 18 2 18 19
M  V30 19 1 13 20
M  V30 20 1 20 21
M  V30 21 2 21 22
M  V30 22 1 22 23
M  V30 23 2 23 24
M  V30 24 1 24 25
M  V30 25 2 25 26
M  V30 26 1 20 27
M  V30 27 1 27 28
M  V30 28 1 28 29
M  V30 29 2 29 30
M  V30 30 1 30 31
M  V30 31 2 31 32
M  V30 32 1 32 33
M  V30 33 2 33 34
M  V30 34 1 34 35
M  V30 35 2 35 36
M  V30 36 1 36 37
M  V30 37 2 37 38
M  V30 38 1 38 39
M  V30 39 2 39 40
M  V30 40 1 40 41
M  V30 41 2 41 42
M  V30 42 1 42 43
M  V30 43 2 43 44
M  V30 44 1 44 45
M  V30 45 2 45 46
M  V30 46 1 46 47
M  V30 47 2 47 48
M  V30 48 1 40 49
M  V30 49 1 8 50
M  V30 50 1 50 51
M  V30 51 1 51 52
M  V30 52 1 52 53
M  V30 53 2 52 54
M  V30 54 1 50 55
M  V30 55 1 55 56
M  V30 56 1 56 57
M  V30 57 1 57 58
M  V30 58 2 57 59
M  V30 59 1 55 60
M  V30 60 1 60 61
M  V30 61 1 61 62
M  V30 62 1 62 63
M  V30 63 2 62 64
M  V30 64 1 60 6
M  V30 65 1 19 14
M  V30 66 1 26 21
M  V30 67 1 49 27
M  V30 68 1 38 29
M  V30 69 1 48 39
M  V30 70 1 37 32
M  V30 71 1 48 43
M  V30 72 1 1 65
M  V30 73 1 1 66
M  V30 74 1 1 67
M  V30 75 1 5 68
M  V30 76 1 5 69
M  V30 77 1 6 70 CFG=3
M  V30 78 1 8 71 CFG=3
M  V30 79 1 9 72
M  V30 80 1 12 73
M  V30 81 1 13 74 CFG=1
M  V30 82 1 15 75
M  V30 83 1 16 76
M  V30 84 1 17 77
M  V30 85 1 18 78
M  V30 86 1 19 79
M  V30 87 1 20 80 CFG=3
M  V30 88 1 22 81
M  V30 89 1 23 82
M  V30 90 1 24 83
M  V30 91 1 25 84
M  V30 92 1 26 85
M  V30 93 1 28 86
M  V30 94 1 28 87
M  V30 95 1 30 88
M  V30 96 1 31 89
M  V30 97 1 33 90
M  V30 98 1 34 91
M  V30 99 1 35 92
M  V30 100 1 36 93
M  V30 101 1 41 94
M  V30 102 1 42 95
M  V30 103 1 44 96
M  V30 104 1 45 97
M  V30 105 1 46 98
M  V30 106 1 47 99
M  V30 107 1 49 100
M  V30 108 1 49 101
M  V30 109 1 50 102 CFG=1
M  V30 110 1 53 103
M  V30 111 1 53 104
M  V30 112 1 53 105
M  V30 113 1 55 106 CFG=3
M  V30 114 1 58 107
M  V30 115 1 58 108
M  V30 116 1 58 109
M  V30 117 1 60 110 CFG=1
M  V30 118 1 63 111
M  V30 119 1 63 112
M  V30 120 1 63 113
M  V30 END BOND
M  V30 END CTAB
M  END
>  <catalyst_id>  (1) 
PHTKELPBNVPHQU_AGHOZYMLSA_R

>  <source_smiles>  (1) 
CC(=O)OC[C@H]1O[C@@H](NC(=S)N[C@H](c2ccccc2)[C@@H](c2ccccc2)N2Cc3ccc4ccccc4c3-c3c(ccc4ccccc34)C2)[C@H](OC(C)=O)[C@@H](OC(C)=O)[C@@H]1OC(C)=O

>  <axial_configuration>  (1) 
R

>  <inchikey>  (1) 
PHTKELPBNVPHQU-AGHOZYMLSA-N

>  <build_source>  (1) 
smiles+axial_bridged

>  <final_biaryl_angle_deg>  (1) 
120.61

>  <n_valid_conformers>  (1) 
11

>  <rdkit_version>  (1) 
2025.09.6

>  <random_seed>  (1) 
42

>  <generated_at>  (1) 
2026-05-19T12:39:05

$$$$
