catalyst221
     RDKit          3D

  0  0  0  0  0  0  0  0  0  0999 V3000
M  V30 BEGIN CTAB
M  V30 COUNTS 62 64 0 0 0
M  V30 BEGIN ATOM
M  V30 1 C -1.677574 -3.791316 -2.195192 0
M  V30 2 C -0.802222 -3.306528 -1.022591 0
M  V30 3 C -1.667863 -3.274441 0.251161 0
M  V30 4 C 0.301150 -4.371444 -0.796429 0
M  V30 5 C -0.106182 -1.938895 -1.372743 0 CFG=1
M  V30 6 C -0.961064 -0.800755 -1.991563 0
M  V30 7 P -2.293969 -0.049096 -0.965340 0
M  V30 8 C -2.984000 1.291466 -2.001210 0
M  V30 9 C -2.783328 1.381168 -3.385587 0
M  V30 10 C -3.349127 2.421954 -4.130740 0
M  V30 11 C -4.134358 3.386013 -3.505847 0
M  V30 12 C -4.359474 3.307882 -2.135800 0
M  V30 13 C -3.793966 2.267697 -1.392924 0
M  V30 14 C -1.379905 0.910453 0.284692 0
M  V30 15 C -1.584063 0.615212 1.642022 0
M  V30 16 C -0.909707 1.325775 2.638304 0
M  V30 17 C -0.028853 2.346820 2.291056 0
M  V30 18 C 0.181426 2.654578 0.949209 0
M  V30 19 C -0.486579 1.938488 -0.047645 0
M  V30 20 N 0.718082 -1.452651 -0.263434 0
M  V30 21 C 1.909934 -0.792743 -0.487737 0
M  V30 22 O 2.418252 -0.664881 -1.595528 0
M  V30 23 C 2.562470 -0.181087 0.704474 0
M  V30 24 C 2.335309 -0.653831 2.003101 0
M  V30 25 C 2.941412 -0.030499 3.106465 0
M  V30 26 C 2.645594 -0.508603 4.508366 0
M  V30 27 F 2.388146 -1.843839 4.572564 0
M  V30 28 F 1.555290 0.109681 5.039571 0
M  V30 29 F 3.668286 -0.281452 5.377030 0
M  V30 30 C 3.784171 1.072796 2.888202 0
M  V30 31 C 4.046016 1.540021 1.589511 0
M  V30 32 C 4.931282 2.741555 1.358583 0
M  V30 33 F 5.703814 2.630493 0.244443 0
M  V30 34 F 4.209027 3.885398 1.206835 0
M  V30 35 F 5.791250 2.975997 2.388309 0
M  V30 36 C 3.427688 0.902192 0.503338 0
M  V30 37 H -2.548017 -3.144772 -2.346187 0
M  V30 38 H -2.058445 -4.803000 -2.012666 0
M  V30 39 H -1.106823 -3.817355 -3.130119 0
M  V30 40 H -2.567703 -2.668906 0.127170 0
M  V30 41 H -1.113591 -2.897676 1.116313 0
M  V30 42 H -2.012968 -4.283284 0.509546 0
M  V30 43 H 0.931953 -4.121667 0.063760 0
M  V30 44 H 0.950037 -4.463054 -1.674786 0
M  V30 45 H -0.133393 -5.359751 -0.606005 0
M  V30 46 H 0.604267 -2.185554 -2.176544 0
M  V30 47 H -1.423766 -1.195032 -2.902679 0
M  V30 48 H -0.284716 -0.003226 -2.323712 0
M  V30 49 H -2.186635 0.649411 -3.921003 0
M  V30 50 H -3.176391 2.475145 -5.202756 0
M  V30 51 H -4.573238 4.193131 -4.086078 0
M  V30 52 H -4.975967 4.053463 -1.640739 0
M  V30 53 H -3.992686 2.231270 -0.323089 0
M  V30 54 H -2.282018 -0.165735 1.938757 0
M  V30 55 H -1.082138 1.090594 3.685947 0
M  V30 56 H 0.487217 2.908336 3.065559 0
M  V30 57 H 0.862721 3.456225 0.674249 0
M  V30 58 H -0.307242 2.203301 -1.087952 0
M  V30 59 H 0.227191 -1.234963 0.593234 0
M  V30 60 H 1.692369 -1.515921 2.171258 0
M  V30 61 H 4.245670 1.572927 3.742183 0
M  V30 62 H 3.607949 1.262519 -0.510586 0
M  V30 END ATOM
M  V30 BEGIN BOND
M  V30 1 1 1 2
M  V30 2 1 2 3
M  V30 3 1 2 4
M  V30 4 1 2 5
M  V30 5 1 5 6
M  V30 6 1 6 7
M  V30 7 1 7 8
M  V30 8 2 8 9
M  V30 9 1 9 10
M  V30 10 2 10 11
M  V30 11 1 11 12
M  V30 12 2 12 13
M  V30 13 1 7 14
M  V30 14 2 14 15
M  V30 15 1 15 16
M  V30 16 2 16 17
M  V30 17 1 17 18
M  V30 18 2 18 19
M  V30 19 1 5 20
M  V30 20 1 20 21
M  V30 21 2 21 22
M  V30 22 1 21 23
M  V30 23 2 23 24
M  V30 24 1 24 25
M  V30 25 1 25 26
M  V30 26 1 26 27
M  V30 27 1 26 28
M  V30 28 1 26 29
M  V30 29 2 25 30
M  V30 30 1 30 31
M  V30 31 1 31 32
M  V30 32 1 32 33
M  V30 33 1 32 34
M  V30 34 1 32 35
M  V30 35 2 31 36
M  V30 36 1 13 8
M  V30 37 1 19 14
M  V30 38 1 36 23
M  V30 39 1 1 37
M  V30 40 1 1 38
M  V30 41 1 1 39
M  V30 42 1 3 40
M  V30 43 1 3 41
M  V30 44 1 3 42
M  V30 45 1 4 43
M  V30 46 1 4 44
M  V30 47 1 4 45
M  V30 48 1 5 46 CFG=3
M  V30 49 1 6 47
M  V30 50 1 6 48
M  V30 51 1 9 49
M  V30 52 1 10 50
M  V30 53 1 11 51
M  V30 54 1 12 52
M  V30 55 1 13 53
M  V30 56 1 15 54
M  V30 57 1 16 55
M  V30 58 1 17 56
M  V30 59 1 18 57
M  V30 60 1 19 58
M  V30 61 1 20 59
M  V30 62 1 24 60
M  V30 63 1 30 61
M  V30 64 1 36 62
M  V30 END BOND
M  V30 END CTAB
M  END
>  <catalyst_id>  (1) 
NNEYFISCDMOQKY_HSZRJFAPSA_NONE

>  <source_smiles>  (1) 
CC(C)(C)[C@@H](CP(c1ccccc1)c1ccccc1)NC(=O)c1cc(C(F)(F)F)cc(C(F)(F)F)c1

>  <axial_configuration>  (1) 
none

>  <inchikey>  (1) 
NNEYFISCDMOQKY-HSZRJFAPSA-N

>  <build_source>  (1) 
smiles

>  <rdkit_version>  (1) 
2025.09.6

>  <random_seed>  (1) 
42

>  <generated_at>  (1) 
2026-05-19T12:34:18

$$$$
