catalyst17
     RDKit          3D

  0  0  0  0  0  0  0  0  0  0999 V3000
M  V30 BEGIN CTAB
M  V30 COUNTS 67 71 0 0 0
M  V30 BEGIN ATOM
M  V30 1 C -4.061021 -4.905207 0.486566 0
M  V30 2 C -3.302134 -3.804526 0.404625 0
M  V30 3 C -3.855008 -2.409638 0.229942 0 CFG=1
M  V30 4 C -3.414455 -1.464410 1.377802 0
M  V30 5 N -3.001371 -0.129692 0.872883 0
M  V30 6 C -4.080707 0.395221 0.004012 0
M  V30 7 C -4.248078 -0.460919 -1.262485 0
M  V30 8 C -3.430900 -1.757198 -1.109894 0 CFG=1
M  V30 9 C -1.944161 -1.355140 -1.028513 0
M  V30 10 C -1.754187 -0.255439 0.050685 0 CFG=2
M  V30 11 C -0.435697 -0.447642 0.891411 0 CFG=1
M  V30 12 N 0.780291 -0.402300 0.073138 0
M  V30 13 C 1.434547 -1.539752 -0.342572 0
M  V30 14 O 1.046533 -2.677825 -0.109640 0
M  V30 15 C 2.707433 -1.332188 -1.089113 0
M  V30 16 C 3.681853 -2.337253 -1.030873 0
M  V30 17 C 4.900935 -2.197066 -1.711810 0
M  V30 18 C 5.940192 -3.292683 -1.650735 0
M  V30 19 F 7.207534 -2.829472 -1.836385 0
M  V30 20 F 5.744210 -4.242439 -2.604335 0
M  V30 21 F 5.954890 -3.948155 -0.458258 0
M  V30 22 C 5.119185 -1.040131 -2.478778 0
M  V30 23 C 4.142493 -0.033376 -2.569754 0
M  V30 24 C 4.392188 1.211389 -3.390730 0
M  V30 25 F 3.256315 1.710699 -3.950820 0
M  V30 26 F 4.918761 2.219310 -2.644611 0
M  V30 27 F 5.259357 1.008210 -4.419555 0
M  V30 28 C 2.937310 -0.187163 -1.863214 0
M  V30 29 C -0.291931 0.528905 2.063427 0
M  V30 30 C -0.311620 -0.027501 3.352394 0
M  V30 31 C -0.182000 0.802066 4.446173 0
M  V30 32 N -0.026106 2.134614 4.356758 0
M  V30 33 C -0.003469 2.686607 3.135681 0
M  V30 34 C 0.163434 4.062184 3.067624 0
M  V30 35 C 0.219220 4.749962 1.852318 0
M  V30 36 C 0.103500 4.046299 0.664937 0
M  V30 37 O 0.148607 4.572195 -0.595611 0
M  V30 38 C 0.282871 5.985267 -0.696659 0
M  V30 39 C -0.070624 2.660156 0.714568 0
M  V30 40 C -0.129275 1.942105 1.937962 0
M  V30 41 H -3.605396 -5.883075 0.612197 0
M  V30 42 H -5.144009 -4.861990 0.427754 0
M  V30 43 H -2.220449 -3.916435 0.470480 0
M  V30 44 H -4.953193 -2.466749 0.240801 0
M  V30 45 H -2.612428 -1.901483 1.984023 0
M  V30 46 H -4.252716 -1.333516 2.075044 0
M  V30 47 H -3.865932 1.434654 -0.273288 0
M  V30 48 H -5.023394 0.430646 0.564756 0
M  V30 49 H -5.308181 -0.693354 -1.417041 0
M  V30 50 H -3.905320 0.095697 -2.143108 0
M  V30 51 H -3.606367 -2.426886 -1.958995 0
M  V30 52 H -1.613468 -0.967888 -2.000454 0
M  V30 53 H -1.339641 -2.240681 -0.820512 0
M  V30 54 H -1.643434 0.689580 -0.493282 0
M  V30 55 H -0.482368 -1.460318 1.311827 0
M  V30 56 H 1.282390 0.473594 0.051268 0
M  V30 57 H 3.490318 -3.236575 -0.443106 0
M  V30 58 H 6.061032 -0.925618 -3.019912 0
M  V30 59 H 2.172789 0.583042 -1.952415 0
M  V30 60 H -0.433075 -1.095188 3.508029 0
M  V30 61 H -0.199461 0.403642 5.456451 0
M  V30 62 H 0.256828 4.620966 3.996930 0
M  V30 63 H 0.355060 5.825488 1.879548 0
M  V30 64 H 0.282948 6.245542 -1.759504 0
M  V30 65 H 1.233964 6.321753 -0.271002 0
M  V30 66 H -0.564118 6.497200 -0.227952 0
M  V30 67 H -0.161297 2.149875 -0.238048 0
M  V30 END ATOM
M  V30 BEGIN BOND
M  V30 1 2 1 2
M  V30 2 1 2 3
M  V30 3 1 3 4
M  V30 4 1 4 5
M  V30 5 1 5 6
M  V30 6 1 6 7
M  V30 7 1 7 8
M  V30 8 1 8 9
M  V30 9 1 9 10
M  V30 10 1 10 11
M  V30 11 1 11 12
M  V30 12 1 12 13
M  V30 13 2 13 14
M  V30 14 1 13 15
M  V30 15 2 15 16
M  V30 16 1 16 17
M  V30 17 1 17 18
M  V30 18 1 18 19
M  V30 19 1 18 20
M  V30 20 1 18 21
M  V30 21 2 17 22
M  V30 22 1 22 23
M  V30 23 1 23 24
M  V30 24 1 24 25
M  V30 25 1 24 26
M  V30 26 1 24 27
M  V30 27 2 23 28
M  V30 28 1 11 29
M  V30 29 2 29 30
M  V30 30 1 30 31
M  V30 31 2 31 32
M  V30 32 1 32 33
M  V30 33 2 33 34
M  V30 34 1 34 35
M  V30 35 2 35 36
M  V30 36 1 36 37
M  V30 37 1 37 38
M  V30 38 1 36 39
M  V30 39 2 39 40
M  V30 40 1 8 3
M  V30 41 1 28 15
M  V30 42 1 40 29
M  V30 43 1 10 5
M  V30 44 1 40 33
M  V30 45 1 1 41
M  V30 46 1 1 42
M  V30 47 1 2 43
M  V30 48 1 3 44 CFG=3
M  V30 49 1 4 45
M  V30 50 1 4 46
M  V30 51 1 6 47
M  V30 52 1 6 48
M  V30 53 1 7 49
M  V30 54 1 7 50
M  V30 55 1 8 51 CFG=3
M  V30 56 1 9 52
M  V30 57 1 9 53
M  V30 58 1 10 54 CFG=3
M  V30 59 1 11 55 CFG=1
M  V30 60 1 12 56
M  V30 61 1 16 57
M  V30 62 1 22 58
M  V30 63 1 28 59
M  V30 64 1 30 60
M  V30 65 1 31 61
M  V30 66 1 34 62
M  V30 67 1 35 63
M  V30 68 1 38 64
M  V30 69 1 38 65
M  V30 70 1 38 66
M  V30 71 1 39 67
M  V30 END BOND
M  V30 END CTAB
M  END
>  <catalyst_id>  (1) 
BSAMKCJCFWKYHR_JTSNXCRFSA_NONE

>  <source_smiles>  (1) 
C=C[C@H]1CN2CC[C@H]1C[C@@H]2[C@@H](NC(=O)c1cc(C(F)(F)F)cc(C(F)(F)F)c1)c1ccnc2ccc(OC)cc12

>  <axial_configuration>  (1) 
none

>  <inchikey>  (1) 
BSAMKCJCFWKYHR-JTSNXCRFSA-N

>  <build_source>  (1) 
smiles

>  <rdkit_version>  (1) 
2025.09.6

>  <random_seed>  (1) 
42

>  <generated_at>  (1) 
2026-05-19T12:31:40

$$$$
