catalyst102
     RDKit          3D

  0  0  0  0  0  0  0  0  0  0999 V3000
M  V30 BEGIN CTAB
M  V30 COUNTS 69 74 0 0 0
M  V30 BEGIN ATOM
M  V30 1 C -1.767767 0.002970 -3.561756 0
M  V30 2 N -1.106271 0.508310 -2.305583 0 CHG=1
M  V30 3 C -2.071027 1.397119 -1.535560 0
M  V30 4 C 0.086925 1.378293 -2.705747 0
M  V30 5 C -0.576754 -0.683179 -1.446740 0
M  V30 6 C -1.115529 -0.919016 -0.043849 0
M  V30 7 C -2.313930 -1.643900 0.174970 0
M  V30 8 C -3.126849 -2.223059 -0.906692 0
M  V30 9 C -2.812922 -3.490467 -1.423233 0
M  V30 10 C -3.615395 -4.086746 -2.398649 0
M  V30 11 C -4.766884 -3.441606 -2.843464 0
M  V30 12 C -5.125749 -2.210043 -2.301136 0
M  V30 13 C -4.318682 -1.613055 -1.329389 0
M  V30 14 C -2.782049 -1.812547 1.491140 0
M  V30 15 C -2.097815 -1.306504 2.601030 0
M  V30 16 C -2.618060 -1.490239 3.895088 0
M  V30 17 C -1.944278 -1.008905 5.015690 0
M  V30 18 C -0.742131 -0.336448 4.854535 0
M  V30 19 C -0.217009 -0.152213 3.573760 0
M  V30 20 C -0.873994 -0.630396 2.414471 0
M  V30 21 C -0.355747 -0.476180 1.087513 0
M  V30 22 C 1.053913 0.026425 0.902082 0
M  V30 23 C 1.292829 1.432514 0.690817 0
M  V30 24 O 0.335594 2.285983 0.671413 0 CHG=-1
M  V30 25 C 2.659906 1.809455 0.483470 0
M  V30 26 C 3.078237 3.217903 0.232301 0
M  V30 27 C 2.829743 4.230477 1.172236 0
M  V30 28 C 3.254202 5.543675 0.952329 0
M  V30 29 C 3.941592 5.867832 -0.214844 0
M  V30 30 C 4.199484 4.881005 -1.163531 0
M  V30 31 C 3.770853 3.568848 -0.941118 0
M  V30 32 C 3.688289 0.841154 0.507244 0
M  V30 33 C 3.442492 -0.513797 0.721490 0
M  V30 34 C 4.510288 -1.430438 0.732715 0
M  V30 35 C 4.291035 -2.788394 0.948305 0
M  V30 36 C 2.999525 -3.244105 1.159967 0
M  V30 37 C 1.935468 -2.338164 1.150448 0
M  V30 38 C 2.121535 -0.947195 0.927637 0
M  V30 39 H -2.100014 0.861133 -4.154457 0
M  V30 40 H -2.624499 -0.614171 -3.293448 0
M  V30 41 H -1.040655 -0.585388 -4.130130 0
M  V30 42 H -3.004795 0.855448 -1.387822 0
M  V30 43 H -2.274016 2.288952 -2.137619 0
M  V30 44 H -1.652938 1.683909 -0.579373 0
M  V30 45 H -0.275215 2.187858 -3.347711 0
M  V30 46 H 0.561249 1.792463 -1.825516 0
M  V30 47 H 0.794137 0.756121 -3.263571 0
M  V30 48 H 0.515151 -0.610323 -1.448201 0
M  V30 49 H -0.748283 -1.588646 -2.042127 0
M  V30 50 H -1.934442 -4.023606 -1.062494 0
M  V30 51 H -3.352488 -5.064969 -2.794233 0
M  V30 52 H -5.400976 -3.913739 -3.590116 0
M  V30 53 H -6.046593 -1.724892 -2.615941 0
M  V30 54 H -4.641147 -0.675349 -0.880633 0
M  V30 55 H -3.714218 -2.355701 1.649928 0
M  V30 56 H -3.560779 -2.012647 4.040982 0
M  V30 57 H -2.360056 -1.152075 6.008703 0
M  V30 58 H -0.209749 0.058457 5.715211 0
M  V30 59 H 0.715500 0.404201 3.477556 0
M  V30 60 H 2.278513 3.986470 2.079162 0
M  V30 61 H 3.036660 6.307229 1.693203 0
M  V30 62 H 4.268792 6.889137 -0.385400 0
M  V30 63 H 4.731524 5.130187 -2.076591 0
M  V30 64 H 3.974240 2.810077 -1.691653 0
M  V30 65 H 4.714655 1.178858 0.369971 0
M  V30 66 H 5.529941 -1.082867 0.579786 0
M  V30 67 H 5.127712 -3.480707 0.963105 0
M  V30 68 H 2.813630 -4.297815 1.347374 0
M  V30 69 H 0.940870 -2.733517 1.344361 0
M  V30 END ATOM
M  V30 BEGIN BOND
M  V30 1 1 1 2
M  V30 2 1 2 3
M  V30 3 1 2 4
M  V30 4 1 2 5
M  V30 5 1 5 6
M  V30 6 2 6 7
M  V30 7 1 7 8
M  V30 8 2 8 9
M  V30 9 1 9 10
M  V30 10 2 10 11
M  V30 11 1 11 12
M  V30 12 2 12 13
M  V30 13 1 7 14
M  V30 14 2 14 15
M  V30 15 1 15 16
M  V30 16 2 16 17
M  V30 17 1 17 18
M  V30 18 2 18 19
M  V30 19 1 19 20
M  V30 20 2 20 21
M  V30 21 1 21 22
M  V30 22 2 22 23
M  V30 23 1 23 24
M  V30 24 1 23 25
M  V30 25 1 25 26
M  V30 26 2 26 27
M  V30 27 1 27 28
M  V30 28 2 28 29
M  V30 29 1 29 30
M  V30 30 2 30 31
M  V30 31 2 25 32
M  V30 32 1 32 33
M  V30 33 2 33 34
M  V30 34 1 34 35
M  V30 35 2 35 36
M  V30 36 1 36 37
M  V30 37 2 37 38
M  V30 38 1 21 6
M  V30 39 1 38 22
M  V30 40 1 13 8
M  V30 41 1 20 15
M  V30 42 1 31 26
M  V30 43 1 38 33
M  V30 44 1 1 39
M  V30 45 1 1 40
M  V30 46 1 1 41
M  V30 47 1 3 42
M  V30 48 1 3 43
M  V30 49 1 3 44
M  V30 50 1 4 45
M  V30 51 1 4 46
M  V30 52 1 4 47
M  V30 53 1 5 48
M  V30 54 1 5 49
M  V30 55 1 9 50
M  V30 56 1 10 51
M  V30 57 1 11 52
M  V30 58 1 12 53
M  V30 59 1 13 54
M  V30 60 1 14 55
M  V30 61 1 16 56
M  V30 62 1 17 57
M  V30 63 1 18 58
M  V30 64 1 19 59
M  V30 65 1 27 60
M  V30 66 1 28 61
M  V30 67 1 29 62
M  V30 68 1 30 63
M  V30 69 1 31 64
M  V30 70 1 32 65
M  V30 71 1 34 66
M  V30 72 1 35 67
M  V30 73 1 36 68
M  V30 74 1 37 69
M  V30 END BOND
M  V30 END CTAB
M  END
>  <catalyst_id>  (1) 
IANJYMZODOEWSW_UHFFFAOYSA_R

>  <source_smiles>  (1) 
C[N+](C)(C)Cc1c(-c2ccccc2)cc2ccccc2c1-c1c([O-])c(-c2ccccc2)cc2ccccc12

>  <axial_configuration>  (1) 
R

>  <inchikey>  (1) 
IANJYMZODOEWSW-UHFFFAOYSA-N

>  <build_source>  (1) 
smiles+axial_free

>  <final_biaryl_angle_deg>  (1) 
85.00

>  <rdkit_version>  (1) 
2025.09.6

>  <random_seed>  (1) 
42

>  <generated_at>  (1) 
2026-05-19T12:34:12

$$$$
