catalyst183
     RDKit          3D

  0  0  0  0  0  0  0  0  0  0999 V3000
M  V30 BEGIN CTAB
M  V30 COUNTS 103 110 0 0 0
M  V30 BEGIN ATOM
M  V30 1 C -10.089363 -0.684223 -1.380751 0
M  V30 2 C -8.768778 -0.463498 -1.343781 0
M  V30 3 C -7.727468 -1.547114 -1.497563 0 CFG=1
M  V30 4 C -6.743675 -1.253159 -2.662326 0
M  V30 5 N -5.327107 -1.227056 -2.204474 0
M  V30 6 C -5.002062 -2.555201 -1.633957 0
M  V30 7 C -5.935000 -2.928939 -0.472229 0
M  V30 8 C -6.904909 -1.764146 -0.202484 0 CFG=1
M  V30 9 C -6.027414 -0.535804 0.104646 0
M  V30 10 C -5.210146 -0.157117 -1.151283 0 CFG=1
M  V30 11 C -3.709077 0.202904 -0.822481 0 CFG=1
M  V30 12 N -2.950064 0.235950 -2.097637 0
M  V30 13 C -1.631740 0.129934 -2.150876 0
M  V30 14 C -0.505428 0.584388 -1.503064 0
M  V30 15 N -0.246010 1.382770 -0.488315 0
M  V30 16 C 0.984670 1.794069 0.065743 0
M  V30 17 C 2.173784 1.849163 -0.660598 0
M  V30 18 C 3.387352 2.111676 -0.017009 0
M  V30 19 C 4.634512 2.101765 -0.818554 0
M  V30 20 O 4.694693 2.889958 -1.759883 0
M  V30 21 N 5.693701 1.281927 -0.399711 0
M  V30 22 C 7.010948 1.536077 -1.002061 0
M  V30 23 C 7.404020 0.502955 -2.036422 0
M  V30 24 C 8.478542 -0.368993 -1.807104 0
M  V30 25 C 8.826858 -1.329380 -2.758618 0
M  V30 26 C 8.106953 -1.427883 -3.947753 0
M  V30 27 C 7.040089 -0.564840 -4.188874 0
M  V30 28 C 6.691124 0.396823 -3.239982 0
M  V30 29 C 5.519227 0.068973 0.343092 0
M  V30 30 C 4.406093 -0.756780 0.128016 0
M  V30 31 C 4.216367 -1.942080 0.856333 0
M  V30 32 C 3.003597 -2.803446 0.593204 0
M  V30 33 F 3.132840 -3.567807 -0.523611 0
M  V30 34 F 1.859060 -2.080804 0.432744 0
M  V30 35 F 2.741661 -3.673334 1.610946 0
M  V30 36 C 5.187669 -2.321286 1.793336 0
M  V30 37 C 6.323022 -1.526519 2.013035 0
M  V30 38 C 7.383425 -1.952161 3.000496 0
M  V30 39 F 8.001944 -0.897800 3.601194 0
M  V30 40 F 8.370716 -2.681685 2.413899 0
M  V30 41 F 6.894126 -2.722226 4.011122 0
M  V30 42 C 6.480711 -0.340246 1.274832 0
M  V30 43 C 3.427182 2.382280 1.353485 0
M  V30 44 C 2.244113 2.356744 2.100806 0
M  V30 45 C 2.261905 2.658065 3.577971 0
M  V30 46 F 2.121903 3.985972 3.837657 0
M  V30 47 F 3.423382 2.277667 4.180435 0
M  V30 48 F 1.266872 2.031885 4.264861 0
M  V30 49 C 1.035439 2.061424 1.445357 0
M  V30 50 C 0.377617 -0.257221 -2.352214 0
M  V30 51 O 1.536824 -0.583168 -2.449370 0
M  V30 52 C -0.822191 -0.640488 -3.127798 0
M  V30 53 O -0.991104 -1.331750 -4.101157 0
M  V30 54 C -3.600111 1.530390 -0.081357 0
M  V30 55 C -3.842397 2.712183 -0.800688 0
M  V30 56 C -3.749566 3.923652 -0.152549 0
M  V30 57 N -3.438387 4.044133 1.150033 0
M  V30 58 C -3.204218 2.930880 1.856958 0
M  V30 59 C -2.869337 3.087212 3.191720 0
M  V30 60 C -2.575044 1.996245 4.008812 0
M  V30 61 C -2.610955 0.709059 3.492050 0
M  V30 62 O -2.291750 -0.275090 4.382985 0
M  V30 63 C -2.158723 -1.597248 3.876612 0
M  V30 64 C -2.960036 0.528729 2.152552 0
M  V30 65 C -3.263767 1.628949 1.302542 0
M  V30 66 H -10.502409 -1.678297 -1.522865 0
M  V30 67 H -10.792788 0.135807 -1.267682 0
M  V30 68 H -8.419760 0.557752 -1.202309 0
M  V30 69 H -8.239752 -2.492143 -1.728816 0
M  V30 70 H -6.979264 -0.307156 -3.166980 0
M  V30 71 H -6.853238 -2.023639 -3.437138 0
M  V30 72 H -5.067577 -3.316974 -2.421083 0
M  V30 73 H -3.958253 -2.580148 -1.300300 0
M  V30 74 H -6.495712 -3.838895 -0.717006 0
M  V30 75 H -5.344108 -3.145581 0.425863 0
M  V30 76 H -7.553705 -1.998501 0.648870 0
M  V30 77 H -5.373993 -0.773281 0.951426 0
M  V30 78 H -6.647016 0.313251 0.415276 0
M  V30 79 H -5.661083 0.746882 -1.585614 0
M  V30 80 H -3.286010 -0.617095 -0.236505 0
M  V30 81 H -3.495239 -0.311365 -2.784232 0
M  V30 82 H -1.023004 1.840868 -0.013330 0
M  V30 83 H 2.185545 1.689167 -1.734785 0
M  V30 84 H 7.760743 1.600274 -0.205564 0
M  V30 85 H 7.026839 2.522911 -1.481466 0
M  V30 86 H 9.051847 -0.310136 -0.885219 0
M  V30 87 H 9.659669 -2.002501 -2.572050 0
M  V30 88 H 8.376763 -2.176876 -4.687534 0
M  V30 89 H 6.476128 -0.640581 -5.115054 0
M  V30 90 H 5.855189 1.064525 -3.442484 0
M  V30 91 H 3.686640 -0.519085 -0.655109 0
M  V30 92 H 5.063228 -3.249712 2.353554 0
M  V30 93 H 7.356780 0.275560 1.468132 0
M  V30 94 H 4.376249 2.610866 1.835435 0
M  V30 95 H 0.118255 2.016616 2.033070 0
M  V30 96 H -4.085195 2.686860 -1.859691 0
M  V30 97 H -3.923824 4.858179 -0.678557 0
M  V30 98 H -2.828318 4.090459 3.611364 0
M  V30 99 H -2.309160 2.158974 5.050751 0
M  V30 100 H -3.120748 -1.978595 3.519206 0
M  V30 101 H -1.830765 -2.239474 4.699542 0
M  V30 102 H -1.397202 -1.646453 3.090988 0
M  V30 103 H -2.992869 -0.478766 1.758396 0
M  V30 END ATOM
M  V30 BEGIN BOND
M  V30 1 2 1 2
M  V30 2 1 2 3
M  V30 3 1 3 4
M  V30 4 1 4 5
M  V30 5 1 5 6
M  V30 6 1 6 7
M  V30 7 1 7 8
M  V30 8 1 8 9
M  V30 9 1 9 10
M  V30 10 1 10 11
M  V30 11 1 11 12
M  V30 12 1 12 13
M  V30 13 2 13 14
M  V30 14 1 14 15
M  V30 15 1 15 16
M  V30 16 2 16 17
M  V30 17 1 17 18
M  V30 18 1 18 19
M  V30 19 2 19 20
M  V30 20 1 19 21
M  V30 21 1 21 22
M  V30 22 1 22 23
M  V30 23 2 23 24
M  V30 24 1 24 25
M  V30 25 2 25 26
M  V30 26 1 26 27
M  V30 27 2 27 28
M  V30 28 1 21 29
M  V30 29 2 29 30
M  V30 30 1 30 31
M  V30 31 1 31 32
M  V30 32 1 32 33
M  V30 33 1 32 34
M  V30 34 1 32 35
M  V30 35 2 31 36
M  V30 36 1 36 37
M  V30 37 1 37 38
M  V30 38 1 38 39
M  V30 39 1 38 40
M  V30 40 1 38 41
M  V30 41 2 37 42
M  V30 42 2 18 43
M  V30 43 1 43 44
M  V30 44 1 44 45
M  V30 45 1 45 46
M  V30 46 1 45 47
M  V30 47 1 45 48
M  V30 48 2 44 49
M  V30 49 1 14 50
M  V30 50 2 50 51
M  V30 51 1 50 52
M  V30 52 2 52 53
M  V30 53 1 11 54
M  V30 54 2 54 55
M  V30 55 1 55 56
M  V30 56 2 56 57
M  V30 57 1 57 58
M  V30 58 2 58 59
M  V30 59 1 59 60
M  V30 60 2 60 61
M  V30 61 1 61 62
M  V30 62 1 62 63
M  V30 63 1 61 64
M  V30 64 2 64 65
M  V30 65 1 8 3
M  V30 66 1 52 13
M  V30 67 1 65 54
M  V30 68 1 10 5
M  V30 69 1 49 16
M  V30 70 1 65 58
M  V30 71 1 28 23
M  V30 72 1 42 29
M  V30 73 1 1 66
M  V30 74 1 1 67
M  V30 75 1 2 68
M  V30 76 1 3 69 CFG=3
M  V30 77 1 4 70
M  V30 78 1 4 71
M  V30 79 1 6 72
M  V30 80 1 6 73
M  V30 81 1 7 74
M  V30 82 1 7 75
M  V30 83 1 8 76 CFG=1
M  V30 84 1 9 77
M  V30 85 1 9 78
M  V30 86 1 10 79 CFG=3
M  V30 87 1 11 80 CFG=1
M  V30 88 1 12 81
M  V30 89 1 15 82
M  V30 90 1 17 83
M  V30 91 1 22 84
M  V30 92 1 22 85
M  V30 93 1 24 86
M  V30 94 1 25 87
M  V30 95 1 26 88
M  V30 96 1 27 89
M  V30 97 1 28 90
M  V30 98 1 30 91
M  V30 99 1 36 92
M  V30 100 1 42 93
M  V30 101 1 43 94
M  V30 102 1 49 95
M  V30 103 1 55 96
M  V30 104 1 56 97
M  V30 105 1 59 98
M  V30 106 1 60 99
M  V30 107 1 63 100
M  V30 108 1 63 101
M  V30 109 1 63 102
M  V30 110 1 64 103
M  V30 END BOND
M  V30 END CTAB
M  END
>  <catalyst_id>  (1) 
LRBNHAVWEFGUNL_RMNXMMBVSA_NONE

>  <source_smiles>  (1) 
C=C[C@H]1CN2CC[C@H]1C[C@H]2[C@@H](Nc1c(Nc2cc(C(=O)N(Cc3ccccc3)c3cc(C(F)(F)F)cc(C(F)(F)F)c3)cc(C(F)(F)F)c2)c(=O)c1=O)c1ccnc2ccc(OC)cc12

>  <axial_configuration>  (1) 
none

>  <inchikey>  (1) 
LRBNHAVWEFGUNL-RMNXMMBVSA-N

>  <build_source>  (1) 
smiles

>  <rdkit_version>  (1) 
2025.09.6

>  <random_seed>  (1) 
42

>  <generated_at>  (1) 
2026-05-19T12:36:45

$$$$
