catalyst313
     RDKit          3D

  0  0  0  0  0  0  0  0  0  0999 V3000
M  V30 BEGIN CTAB
M  V30 COUNTS 31 32 0 0 0
M  V30 BEGIN ATOM
M  V30 1 O -0.404825 -0.335742 2.804244 0
M  V30 2 C -1.379127 0.294977 2.422319 0
M  V30 3 O -2.113880 1.008418 3.302851 0
M  V30 4 C -1.962749 0.331206 1.010957 0 CFG=2
M  V30 5 C -3.002671 -0.781747 0.854007 0
M  V30 6 C -2.787771 -1.289410 -0.566402 0
M  V30 7 C -1.285615 -1.159973 -0.757505 0
M  V30 8 N -0.945734 0.030041 0.000014 0
M  V30 9 C 0.070806 0.925050 -0.254630 0
M  V30 10 O 0.125425 2.009806 0.333208 0
M  V30 11 C 1.130895 0.524976 -1.307889 0 CFG=2
M  V30 12 C 1.937708 -0.705022 -0.890666 0
M  V30 13 C 3.385470 -0.242753 -0.874989 0
M  V30 14 C 3.275067 1.248215 -0.650479 0
M  V30 15 N 2.126992 1.614833 -1.478557 0
M  V30 16 H -1.613966 0.924019 4.141992 0
M  V30 17 H -2.373706 1.324501 0.798492 0
M  V30 18 H -2.829549 -1.597079 1.567624 0
M  V30 19 H -4.022070 -0.416565 1.013199 0
M  V30 20 H -3.146063 -2.311931 -0.713069 0
M  V30 21 H -3.313596 -0.635983 -1.273180 0
M  V30 22 H -1.007377 -1.075728 -1.810084 0
M  V30 23 H -0.756393 -2.006296 -0.306928 0
M  V30 24 H 0.626751 0.377234 -2.267934 0
M  V30 25 H 1.807886 -1.534454 -1.593784 0
M  V30 26 H 1.657018 -1.060474 0.107543 0
M  V30 27 H 3.856048 -0.451778 -1.843694 0
M  V30 28 H 3.971126 -0.742472 -0.097803 0
M  V30 29 H 3.079559 1.472314 0.404770 0
M  V30 30 H 4.178768 1.780617 -0.959364 0
M  V30 31 H 1.715573 2.481200 -1.114260 0
M  V30 END ATOM
M  V30 BEGIN BOND
M  V30 1 2 1 2
M  V30 2 1 2 3
M  V30 3 1 2 4
M  V30 4 1 4 5
M  V30 5 1 5 6
M  V30 6 1 6 7
M  V30 7 1 7 8
M  V30 8 1 8 9
M  V30 9 2 9 10
M  V30 10 1 9 11
M  V30 11 1 11 12
M  V30 12 1 12 13
M  V30 13 1 13 14
M  V30 14 1 14 15
M  V30 15 1 8 4
M  V30 16 1 15 11
M  V30 17 1 3 16
M  V30 18 1 4 17 CFG=3
M  V30 19 1 5 18
M  V30 20 1 5 19
M  V30 21 1 6 20
M  V30 22 1 6 21
M  V30 23 1 7 22
M  V30 24 1 7 23
M  V30 25 1 11 24 CFG=3
M  V30 26 1 12 25
M  V30 27 1 12 26
M  V30 28 1 13 27
M  V30 29 1 13 28
M  V30 30 1 14 29
M  V30 31 1 14 30
M  V30 32 1 15 31
M  V30 END BOND
M  V30 END CTAB
M  END
>  <catalyst_id>  (1) 
RWCOTTLHDJWHRS_YUMQZZPRSA_NONE

>  <source_smiles>  (1) 
O=C(O)[C@@H]1CCCN1C(=O)[C@@H]1CCCN1

>  <axial_configuration>  (1) 
none

>  <inchikey>  (1) 
RWCOTTLHDJWHRS-YUMQZZPRSA-N

>  <build_source>  (1) 
smiles

>  <rdkit_version>  (1) 
2025.09.6

>  <random_seed>  (1) 
42

>  <generated_at>  (1) 
2026-05-19T12:29:57

$$$$
