catalyst53
     RDKit          3D

  0  0  0  0  0  0  0  0  0  0999 V3000
M  V30 BEGIN CTAB
M  V30 COUNTS 65 69 0 0 0
M  V30 BEGIN ATOM
M  V30 1 C -6.490835 1.787307 2.061828 0
M  V30 2 C -5.246105 1.382678 1.777565 0
M  V30 3 C -4.379389 2.006313 0.708692 0 CFG=1
M  V30 4 C -3.009243 2.477696 1.267099 0
M  V30 5 N -1.870086 1.858082 0.537572 0
M  V30 6 C -1.963571 2.250783 -0.885721 0
M  V30 7 C -3.293911 1.820723 -1.519120 0
M  V30 8 C -4.121556 1.045593 -0.479800 0 CFG=1
M  V30 9 C -3.252218 -0.147827 -0.041592 0
M  V30 10 C -1.990412 0.364102 0.699332 0 CFG=1
M  V30 11 C -0.682826 -0.402858 0.270576 0 CFG=1
M  V30 12 N 0.538292 0.252980 0.790752 0
M  V30 13 C 0.987633 0.370989 2.074586 0
M  V30 14 S 0.308852 -0.283707 3.452948 0
M  V30 15 N 2.098290 1.154532 2.256862 0
M  V30 16 C 3.113099 1.564659 1.370273 0
M  V30 17 C 3.350950 0.966168 0.129517 0
M  V30 18 C 4.394753 1.408978 -0.691123 0
M  V30 19 C 5.218440 2.453112 -0.257570 0
M  V30 20 N 6.315139 2.921689 -1.113563 0 CHG=1
M  V30 21 O 6.455465 2.380586 -2.219612 0
M  V30 22 O 7.034366 3.833509 -0.680818 0 CHG=-1
M  V30 23 C 5.010409 3.044077 0.993565 0
M  V30 24 C 3.964751 2.589342 1.804402 0
M  V30 25 C -0.630809 -1.923721 0.426229 0
M  V30 26 C -1.443100 -2.578865 1.360517 0
M  V30 27 C -1.367437 -3.953273 1.474748 0
M  V30 28 N -0.554800 -4.724473 0.730736 0
M  V30 29 C 0.243342 -4.119546 -0.158911 0
M  V30 30 C 1.093593 -4.922140 -0.906459 0
M  V30 31 C 1.971561 -4.397109 -1.859816 0
M  V30 32 C 2.002183 -3.029442 -2.080543 0
M  V30 33 O 2.804095 -2.369339 -2.968874 0
M  V30 34 C 3.713443 -3.162242 -3.723263 0
M  V30 35 C 1.146099 -2.208138 -1.342379 0
M  V30 36 C 0.254932 -2.720385 -0.364585 0
M  V30 37 H -6.966321 2.602325 1.524880 0
M  V30 38 H -7.065885 1.304182 2.846390 0
M  V30 39 H -4.823627 0.562303 2.354861 0
M  V30 40 H -4.897274 2.892442 0.314236 0
M  V30 41 H -2.911152 2.270554 2.340701 0
M  V30 42 H -2.935721 3.570010 1.181007 0
M  V30 43 H -1.123559 1.836223 -1.454163 0
M  V30 44 H -1.850246 3.339123 -0.971042 0
M  V30 45 H -3.103789 1.192502 -2.397570 0
M  V30 46 H -3.849038 2.700623 -1.865452 0
M  V30 47 H -5.060879 0.697727 -0.923992 0
M  V30 48 H -3.827315 -0.810321 0.615174 0
M  V30 49 H -2.982556 -0.738713 -0.925742 0
M  V30 50 H -2.136908 0.180364 1.770038 0
M  V30 51 H -0.625495 -0.235077 -0.812775 0
M  V30 52 H 0.741162 1.097817 0.272694 0
M  V30 53 H 2.231820 1.408615 3.230611 0
M  V30 54 H 2.772987 0.110327 -0.203553 0
M  V30 55 H 4.557407 0.916528 -1.648162 0
M  V30 56 H 5.647031 3.850331 1.352367 0
M  V30 57 H 3.814018 3.059046 2.774389 0
M  V30 58 H -2.117608 -2.045335 2.020288 0
M  V30 59 H -1.977725 -4.487547 2.197549 0
M  V30 60 H 1.075796 -5.997023 -0.737453 0
M  V30 61 H 2.609114 -5.086880 -2.401727 0
M  V30 62 H 4.284354 -2.490198 -4.371186 0
M  V30 63 H 3.179659 -3.870720 -4.365238 0
M  V30 64 H 4.424124 -3.678117 -3.069102 0
M  V30 65 H 1.194239 -1.141942 -1.542076 0
M  V30 END ATOM
M  V30 BEGIN BOND
M  V30 1 2 1 2
M  V30 2 1 2 3
M  V30 3 1 3 4
M  V30 4 1 4 5
M  V30 5 1 5 6
M  V30 6 1 6 7
M  V30 7 1 7 8
M  V30 8 1 8 9
M  V30 9 1 9 10
M  V30 10 1 10 11
M  V30 11 1 11 12
M  V30 12 1 12 13
M  V30 13 2 13 14
M  V30 14 1 13 15
M  V30 15 1 15 16
M  V30 16 2 16 17
M  V30 17 1 17 18
M  V30 18 2 18 19
M  V30 19 1 19 20
M  V30 20 2 20 21
M  V30 21 1 20 22
M  V30 22 1 19 23
M  V30 23 2 23 24
M  V30 24 1 11 25
M  V30 25 2 25 26
M  V30 26 1 26 27
M  V30 27 2 27 28
M  V30 28 1 28 29
M  V30 29 2 29 30
M  V30 30 1 30 31
M  V30 31 2 31 32
M  V30 32 1 32 33
M  V30 33 1 33 34
M  V30 34 1 32 35
M  V30 35 2 35 36
M  V30 36 1 8 3
M  V30 37 1 24 16
M  V30 38 1 36 25
M  V30 39 1 10 5
M  V30 40 1 36 29
M  V30 41 1 1 37
M  V30 42 1 1 38
M  V30 43 1 2 39
M  V30 44 1 3 40 CFG=3
M  V30 45 1 4 41
M  V30 46 1 4 42
M  V30 47 1 6 43
M  V30 48 1 6 44
M  V30 49 1 7 45
M  V30 50 1 7 46
M  V30 51 1 8 47 CFG=3
M  V30 52 1 9 48
M  V30 53 1 9 49
M  V30 54 1 10 50 CFG=1
M  V30 55 1 11 51 CFG=3
M  V30 56 1 12 52
M  V30 57 1 15 53
M  V30 58 1 17 54
M  V30 59 1 18 55
M  V30 60 1 23 56
M  V30 61 1 24 57
M  V30 62 1 26 58
M  V30 63 1 27 59
M  V30 64 1 30 60
M  V30 65 1 31 61
M  V30 66 1 34 62
M  V30 67 1 34 63
M  V30 68 1 34 64
M  V30 69 1 35 65
M  V30 END BOND
M  V30 END CTAB
M  END
>  <catalyst_id>  (1) 
FLNDLLOJIWDRFM_JZWJADFXSA_NONE

>  <source_smiles>  (1) 
C=C[C@H]1CN2CC[C@H]1C[C@H]2[C@@H](NC(=S)Nc1ccc([N+](=O)[O-])cc1)c1ccnc2ccc(OC)cc12

>  <axial_configuration>  (1) 
none

>  <inchikey>  (1) 
FLNDLLOJIWDRFM-JZWJADFXSA-N

>  <build_source>  (1) 
smiles

>  <rdkit_version>  (1) 
2025.09.6

>  <random_seed>  (1) 
42

>  <generated_at>  (1) 
2026-05-19T12:32:57

$$$$
