catalyst269
     RDKit          3D

  0  0  0  0  0  0  0  0  0  0999 V3000
M  V30 BEGIN CTAB
M  V30 COUNTS 64 69 0 0 0
M  V30 BEGIN ATOM
M  V30 1 C -1.518558 -4.743526 0.125552 0
M  V30 2 C -1.386614 -3.417847 -0.012888 0
M  V30 3 C -1.526057 -2.435421 1.126285 0 CFG=1
M  V30 4 C -0.256267 -1.561533 1.292956 0
M  V30 5 N -0.580385 -0.134106 1.575904 0
M  V30 6 C -1.552878 -0.107186 2.699472 0
M  V30 7 C -2.900967 -0.730555 2.291757 0
M  V30 8 C -2.733115 -1.481477 0.955621 0 CFG=1
M  V30 9 C -2.402636 -0.432143 -0.126437 0
M  V30 10 C -1.259876 0.481024 0.377891 0 CFG=2
M  V30 11 C -0.235699 0.883293 -0.748717 0 CFG=2
M  V30 12 N 0.940499 1.509603 -0.084842 0
M  V30 13 S 2.434709 1.423062 -0.855943 0
M  V30 14 O 3.371591 2.216995 -0.093205 0
M  V30 15 O 2.227421 1.670435 -2.266604 0
M  V30 16 C 2.888273 -0.296430 -0.664109 0
M  V30 17 C 2.885437 -1.081161 -1.830309 0
M  V30 18 C 3.194025 -2.432443 -1.762565 0
M  V30 19 C 3.508827 -3.004902 -0.534349 0
M  V30 20 C 3.532446 -2.239092 0.642147 0
M  V30 21 C 3.855428 -2.863501 1.858162 0
M  V30 22 C 3.891781 -2.145397 3.050133 0
M  V30 23 C 3.609930 -0.788632 3.039976 0
M  V30 24 C 3.287017 -0.151833 1.838700 0
M  V30 25 C 3.230770 -0.851724 0.603851 0
M  V30 26 C -0.880588 1.757816 -1.817156 0
M  V30 27 C -1.100264 1.170771 -3.073234 0
M  V30 28 C -1.729378 1.904131 -4.057616 0
M  V30 29 N -2.163388 3.164473 -3.886186 0
M  V30 30 C -1.938433 3.755038 -2.702871 0
M  V30 31 C -2.371886 5.065572 -2.554494 0
M  V30 32 C -2.185692 5.778462 -1.370501 0
M  V30 33 C -1.545871 5.170163 -0.303538 0
M  V30 34 C -1.104090 3.852359 -0.426633 0
M  V30 35 C -1.293134 3.108262 -1.619371 0
M  V30 36 H -1.743867 -5.201030 1.084193 0
M  V30 37 H -1.405222 -5.405751 -0.727792 0
M  V30 38 H -1.158162 -3.023939 -1.000865 0
M  V30 39 H -1.673748 -3.001224 2.057643 0
M  V30 40 H 0.347257 -1.957933 2.119792 0
M  V30 41 H 0.387159 -1.625759 0.410200 0
M  V30 42 H -1.133772 -0.638242 3.563631 0
M  V30 43 H -1.705971 0.925767 3.035399 0
M  V30 44 H -3.243951 -1.416280 3.075271 0
M  V30 45 H -3.663225 0.051102 2.187422 0
M  V30 46 H -3.648118 -2.027286 0.700711 0
M  V30 47 H -2.140927 -0.927267 -1.067011 0
M  V30 48 H -3.290949 0.179679 -0.327467 0
M  V30 49 H -1.719951 1.411469 0.736087 0
M  V30 50 H 0.107526 -0.050684 -1.210601 0
M  V30 51 H 0.991712 1.185770 0.888754 0
M  V30 52 H 2.644984 -0.645396 -2.798442 0
M  V30 53 H 3.194343 -3.040262 -2.664066 0
M  V30 54 H 3.746915 -4.067134 -0.503149 0
M  V30 55 H 4.087388 -3.926683 1.887226 0
M  V30 56 H 4.147938 -2.644039 3.981100 0
M  V30 57 H 3.646559 -0.215691 3.963375 0
M  V30 58 H 3.091886 0.916187 1.896453 0
M  V30 59 H -0.783559 0.156246 -3.292127 0
M  V30 60 H -1.910967 1.482690 -5.042009 0
M  V30 61 H -2.865845 5.550117 -3.393871 0
M  V30 62 H -2.531178 6.805512 -1.293478 0
M  V30 63 H -1.378346 5.717107 0.620541 0
M  V30 64 H -0.588285 3.420399 0.426244 0
M  V30 END ATOM
M  V30 BEGIN BOND
M  V30 1 2 1 2
M  V30 2 1 2 3
M  V30 3 1 3 4
M  V30 4 1 4 5
M  V30 5 1 5 6
M  V30 6 1 6 7
M  V30 7 1 7 8
M  V30 8 1 8 9
M  V30 9 1 9 10
M  V30 10 1 10 11
M  V30 11 1 11 12
M  V30 12 1 12 13
M  V30 13 2 13 14
M  V30 14 2 13 15
M  V30 15 1 13 16
M  V30 16 2 16 17
M  V30 17 1 17 18
M  V30 18 2 18 19
M  V30 19 1 19 20
M  V30 20 2 20 21
M  V30 21 1 21 22
M  V30 22 2 22 23
M  V30 23 1 23 24
M  V30 24 2 24 25
M  V30 25 1 11 26
M  V30 26 2 26 27
M  V30 27 1 27 28
M  V30 28 2 28 29
M  V30 29 1 29 30
M  V30 30 2 30 31
M  V30 31 1 31 32
M  V30 32 2 32 33
M  V30 33 1 33 34
M  V30 34 2 34 35
M  V30 35 1 8 3
M  V30 36 1 25 16
M  V30 37 1 35 26
M  V30 38 1 10 5
M  V30 39 1 25 20
M  V30 40 1 35 30
M  V30 41 1 1 36
M  V30 42 1 1 37
M  V30 43 1 2 38
M  V30 44 1 3 39 CFG=1
M  V30 45 1 4 40
M  V30 46 1 4 41
M  V30 47 1 6 42
M  V30 48 1 6 43
M  V30 49 1 7 44
M  V30 50 1 7 45
M  V30 51 1 8 46 CFG=3
M  V30 52 1 9 47
M  V30 53 1 9 48
M  V30 54 1 10 49 CFG=1
M  V30 55 1 11 50 CFG=3
M  V30 56 1 12 51
M  V30 57 1 17 52
M  V30 58 1 18 53
M  V30 59 1 19 54
M  V30 60 1 21 55
M  V30 61 1 22 56
M  V30 62 1 23 57
M  V30 63 1 24 58
M  V30 64 1 27 59
M  V30 65 1 28 60
M  V30 66 1 31 61
M  V30 67 1 32 62
M  V30 68 1 33 63
M  V30 69 1 34 64
M  V30 END BOND
M  V30 END CTAB
M  END
>  <catalyst_id>  (1) 
QBNQMTGUPXRKES_GNRMJHMBSA_NONE

>  <source_smiles>  (1) 
C=C[C@H]1CN2CC[C@H]1C[C@@H]2[C@H](NS(=O)(=O)c1cccc2ccccc12)c1ccnc2ccccc12

>  <axial_configuration>  (1) 
none

>  <inchikey>  (1) 
QBNQMTGUPXRKES-GNRMJHMBSA-N

>  <build_source>  (1) 
smiles

>  <rdkit_version>  (1) 
2025.09.6

>  <random_seed>  (1) 
42

>  <generated_at>  (1) 
2026-05-19T12:33:39

$$$$
