catalyst191
     RDKit          3D

  0  0  0  0  0  0  0  0  0  0999 V3000
M  V30 BEGIN CTAB
M  V30 COUNTS 67 73 0 0 0
M  V30 BEGIN ATOM
M  V30 1 C 2.611938 -2.711589 3.626834 0
M  V30 2 C 1.962203 -1.758166 2.946457 0
M  V30 3 C 2.184624 -0.277768 3.149592 0 CFG=1
M  V30 4 C 2.604079 0.432197 1.836115 0
M  V30 5 N 1.916556 1.738480 1.660005 0
M  V30 6 C 2.097849 2.526011 2.903175 0
M  V30 7 C 1.371763 1.870773 4.091712 0
M  V30 8 C 0.931122 0.448114 3.695666 0 CFG=1
M  V30 9 C -0.106779 0.587485 2.562947 0
M  V30 10 C 0.447615 1.526866 1.457934 0 CFG=2
M  V30 11 C 0.027988 1.062169 0.017115 0 CFG=1
M  V30 12 O -1.416058 0.916215 0.009441 0
M  V30 13 C -1.909036 -0.228289 -0.577421 0
M  V30 14 C -1.411739 -0.702830 -1.790014 0
M  V30 15 C -1.916883 -1.867934 -2.370629 0
M  V30 16 C -1.368955 -2.324356 -3.582277 0
M  V30 17 C -1.837435 -3.484137 -4.192171 0
M  V30 18 C -2.862449 -4.201003 -3.596206 0
M  V30 19 C -3.417713 -3.753553 -2.393270 0
M  V30 20 C -2.969488 -2.575735 -1.740391 0
M  V30 21 C -3.518991 -2.067915 -0.509177 0
M  V30 22 C -4.587211 -2.692190 0.186331 0
M  V30 23 C -5.114155 -2.177817 1.373617 0
M  V30 24 C -4.592111 -1.013949 1.908817 0
M  V30 25 C -3.541694 -0.373817 1.256756 0
M  V30 26 C -2.985602 -0.879024 0.059046 0
M  V30 27 C 0.415882 2.099615 -1.038738 0
M  V30 28 C -0.336807 3.282259 -1.115458 0
M  V30 29 C 0.001677 4.236120 -2.051999 0
M  V30 30 N 1.027308 4.106484 -2.912697 0
M  V30 31 C 1.759970 2.985249 -2.855253 0
M  V30 32 C 2.812463 2.869593 -3.754253 0
M  V30 33 C 3.635716 1.744041 -3.793494 0
M  V30 34 C 3.392408 0.710840 -2.908286 0
M  V30 35 O 4.156537 -0.417194 -2.900721 0
M  V30 36 C 2.348039 0.794176 -1.993588 0
M  V30 37 C 1.506575 1.932569 -1.939372 0
M  V30 38 H 2.412299 -3.762058 3.436424 0
M  V30 39 H 3.351457 -2.473257 4.384968 0
M  V30 40 H 1.233574 -2.064465 2.197927 0
M  V30 41 H 2.994954 -0.144862 3.881080 0
M  V30 42 H 2.431128 -0.204888 0.962859 0
M  V30 43 H 3.688694 0.602901 1.850639 0
M  V30 44 H 1.727522 3.548157 2.756781 0
M  V30 45 H 3.167954 2.630525 3.123100 0
M  V30 46 H 2.038391 1.836646 4.961288 0
M  V30 47 H 0.496529 2.467461 4.375928 0
M  V30 48 H 0.500639 -0.077210 4.555243 0
M  V30 49 H -0.361224 -0.398951 2.162223 0
M  V30 50 H -1.031518 1.015421 2.969202 0
M  V30 51 H -0.044872 2.499570 1.609782 0
M  V30 52 H 0.489124 0.088720 -0.170778 0
M  V30 53 H -0.630534 -0.155410 -2.308508 0
M  V30 54 H -0.562068 -1.774237 -4.063843 0
M  V30 55 H -1.401879 -3.823346 -5.127897 0
M  V30 56 H -3.237175 -5.108280 -4.062750 0
M  V30 57 H -4.220270 -4.352799 -1.973282 0
M  V30 58 H -5.040375 -3.604155 -0.191666 0
M  V30 59 H -5.934691 -2.688588 1.870447 0
M  V30 60 H -4.997975 -0.600204 2.827573 0
M  V30 61 H -3.154805 0.544884 1.692910 0
M  V30 62 H -1.181357 3.457115 -0.455985 0
M  V30 63 H -0.562131 5.160341 -2.138078 0
M  V30 64 H 2.994989 3.686801 -4.449015 0
M  V30 65 H 4.444562 1.700765 -4.514943 0
M  V30 66 H 4.862671 -0.320073 -3.561099 0
M  V30 67 H 2.207180 -0.048511 -1.326677 0
M  V30 END ATOM
M  V30 BEGIN BOND
M  V30 1 2 1 2
M  V30 2 1 2 3
M  V30 3 1 3 4
M  V30 4 1 4 5
M  V30 5 1 5 6
M  V30 6 1 6 7
M  V30 7 1 7 8
M  V30 8 1 8 9
M  V30 9 1 9 10
M  V30 10 1 10 11
M  V30 11 1 11 12
M  V30 12 1 12 13
M  V30 13 2 13 14
M  V30 14 1 14 15
M  V30 15 2 15 16
M  V30 16 1 16 17
M  V30 17 2 17 18
M  V30 18 1 18 19
M  V30 19 2 19 20
M  V30 20 1 20 21
M  V30 21 2 21 22
M  V30 22 1 22 23
M  V30 23 2 23 24
M  V30 24 1 24 25
M  V30 25 2 25 26
M  V30 26 1 11 27
M  V30 27 2 27 28
M  V30 28 1 28 29
M  V30 29 2 29 30
M  V30 30 1 30 31
M  V30 31 2 31 32
M  V30 32 1 32 33
M  V30 33 2 33 34
M  V30 34 1 34 35
M  V30 35 1 34 36
M  V30 36 2 36 37
M  V30 37 1 8 3
M  V30 38 1 26 13
M  V30 39 1 37 27
M  V30 40 1 10 5
M  V30 41 1 20 15
M  V30 42 1 26 21
M  V30 43 1 37 31
M  V30 44 1 1 38
M  V30 45 1 1 39
M  V30 46 1 2 40
M  V30 47 1 3 41 CFG=1
M  V30 48 1 4 42
M  V30 49 1 4 43
M  V30 50 1 6 44
M  V30 51 1 6 45
M  V30 52 1 7 46
M  V30 53 1 7 47
M  V30 54 1 8 48 CFG=1
M  V30 55 1 9 49
M  V30 56 1 9 50
M  V30 57 1 10 51 CFG=1
M  V30 58 1 11 52 CFG=3
M  V30 59 1 14 53
M  V30 60 1 16 54
M  V30 61 1 17 55
M  V30 62 1 18 56
M  V30 63 1 19 57
M  V30 64 1 22 58
M  V30 65 1 23 59
M  V30 66 1 24 60
M  V30 67 1 25 61
M  V30 68 1 28 62
M  V30 69 1 29 63
M  V30 70 1 32 64
M  V30 71 1 33 65
M  V30 72 1 35 66
M  V30 73 1 36 67
M  V30 END BOND
M  V30 END CTAB
M  END
>  <catalyst_id>  (1) 
LXTIDZQXGAZSHW_KVTWGYCGSA_NONE

>  <source_smiles>  (1) 
C=C[C@H]1CN2CC[C@H]1C[C@@H]2[C@@H](Oc1cc2ccccc2c2ccccc12)c1ccnc2ccc(O)cc12

>  <axial_configuration>  (1) 
none

>  <inchikey>  (1) 
LXTIDZQXGAZSHW-KVTWGYCGSA-N

>  <build_source>  (1) 
smiles

>  <rdkit_version>  (1) 
2025.09.6

>  <random_seed>  (1) 
42

>  <generated_at>  (1) 
2026-05-19T12:30:15

$$$$
