catalyst120
     RDKit          3D

  0  0  0  0  0  0  0  0  0  0999 V3000
M  V30 BEGIN CTAB
M  V30 COUNTS 73 74 0 0 0
M  V30 BEGIN ATOM
M  V30 1 C 7.363082 1.404036 3.108893 0
M  V30 2 C 6.878543 2.048245 1.821493 0
M  V30 3 N 5.617262 1.491473 1.375379 0
M  V30 4 C 5.574481 0.281220 0.711010 0
M  V30 5 O 6.581081 -0.347063 0.413071 0
M  V30 6 N 4.276262 -0.074293 0.435299 0
M  V30 7 C 3.803005 -1.270208 -0.145457 0
M  V30 8 C 4.607714 -2.395555 -0.344363 0
M  V30 9 C 4.077096 -3.566924 -0.908485 0
M  V30 10 C 4.964891 -4.766368 -1.134812 0
M  V30 11 F 5.733638 -4.640374 -2.251022 0
M  V30 12 F 5.824861 -4.998731 -0.105521 0
M  V30 13 F 4.264075 -5.925081 -1.297392 0
M  V30 14 C 2.725038 -3.590667 -1.277109 0
M  V30 15 C 1.911017 -2.472133 -1.077845 0
M  V30 16 C 2.443089 -1.308422 -0.517831 0
M  V30 17 O 1.731774 -0.154778 -0.281807 0
M  V30 18 C 0.433905 -0.057977 -0.878695 0
M  V30 19 C -0.129035 1.366181 -0.651189 0 CFG=1
M  V30 20 N -0.465509 1.535638 0.776876 0
M  V30 21 C -1.527374 0.993992 1.443100 0
M  V30 22 S -1.353892 0.721383 3.077250 0
M  V30 23 N -2.621512 0.723596 0.673637 0
M  V30 24 C -3.871983 0.055324 1.101166 0 CFG=2
M  V30 25 C -3.687787 -1.473530 1.150531 0
M  V30 26 C -3.515821 -2.090196 -0.237564 0
M  V30 27 C -4.630944 -1.680404 -1.193511 0
M  V30 28 C -4.798070 -0.162875 -1.237311 0
M  V30 29 C -5.078668 0.441013 0.165701 0 CFG=1
M  V30 30 N -6.411943 0.017351 0.693123 0
M  V30 31 C -6.666883 0.534510 2.044420 0
M  V30 32 C -7.516172 0.441411 -0.177875 0
M  V30 33 C 0.835792 2.500000 -1.093633 0
M  V30 34 C 1.311752 2.331354 -2.539756 0
M  V30 35 C 0.166205 3.873770 -0.947484 0
M  V30 36 H 6.622960 1.523245 3.907164 0
M  V30 37 H 8.299285 1.865988 3.436794 0
M  V30 38 H 7.539372 0.331765 2.976421 0
M  V30 39 H 6.719229 3.120024 1.975929 0
M  V30 40 H 7.627001 1.922189 1.031914 0
M  V30 41 H 4.803661 1.715647 1.928238 0
M  V30 42 H 3.580877 0.655482 0.509834 0
M  V30 43 H 5.656651 -2.389918 -0.055962 0
M  V30 44 H 2.294605 -4.489663 -1.717551 0
M  V30 45 H 0.866865 -2.548585 -1.362851 0
M  V30 46 H 0.496772 -0.253995 -1.955763 0
M  V30 47 H -0.235430 -0.795656 -0.420740 0
M  V30 48 H -1.052559 1.446113 -1.234591 0
M  V30 49 H 0.337322 1.634746 1.390382 0
M  V30 50 H -2.707652 1.325500 -0.131291 0
M  V30 51 H -4.066065 0.421092 2.112483 0
M  V30 52 H -4.561214 -1.928007 1.634318 0
M  V30 53 H -2.821152 -1.743394 1.763598 0
M  V30 54 H -2.549874 -1.784338 -0.656960 0
M  V30 55 H -3.488040 -3.182566 -0.152826 0
M  V30 56 H -5.571498 -2.153980 -0.888534 0
M  V30 57 H -4.402598 -2.052677 -2.198795 0
M  V30 58 H -5.578587 0.103651 -1.956692 0
M  V30 59 H -3.882711 0.279451 -1.650798 0
M  V30 60 H -5.083856 1.535424 0.060699 0
M  V30 61 H -7.684914 0.290201 2.370950 0
M  V30 62 H -6.544060 1.621984 2.098350 0
M  V30 63 H -6.013184 0.062338 2.783279 0
M  V30 64 H -7.498232 -0.084618 -1.136386 0
M  V30 65 H -7.502619 1.521361 -0.362825 0
M  V30 66 H -8.484726 0.184698 0.267885 0
M  V30 67 H 1.720945 2.497179 -0.443796 0
M  V30 68 H 1.931163 1.436955 -2.655853 0
M  V30 69 H 1.923369 3.185483 -2.850464 0
M  V30 70 H 0.464188 2.254529 -3.229097 0
M  V30 71 H 0.845543 4.672534 -1.264425 0
M  V30 72 H -0.109421 4.075871 0.092418 0
M  V30 73 H -0.740384 3.939027 -1.558800 0
M  V30 END ATOM
M  V30 BEGIN BOND
M  V30 1 1 1 2
M  V30 2 1 2 3
M  V30 3 1 3 4
M  V30 4 2 4 5
M  V30 5 1 4 6
M  V30 6 1 6 7
M  V30 7 2 7 8
M  V30 8 1 8 9
M  V30 9 1 9 10
M  V30 10 1 10 11
M  V30 11 1 10 12
M  V30 12 1 10 13
M  V30 13 2 9 14
M  V30 14 1 14 15
M  V30 15 2 15 16
M  V30 16 1 16 17
M  V30 17 1 17 18
M  V30 18 1 18 19
M  V30 19 1 19 20
M  V30 20 1 20 21
M  V30 21 2 21 22
M  V30 22 1 21 23
M  V30 23 1 23 24
M  V30 24 1 24 25
M  V30 25 1 25 26
M  V30 26 1 26 27
M  V30 27 1 27 28
M  V30 28 1 28 29
M  V30 29 1 29 30
M  V30 30 1 30 31
M  V30 31 1 30 32
M  V30 32 1 19 33
M  V30 33 1 33 34
M  V30 34 1 33 35
M  V30 35 1 16 7
M  V30 36 1 29 24
M  V30 37 1 1 36
M  V30 38 1 1 37
M  V30 39 1 1 38
M  V30 40 1 2 39
M  V30 41 1 2 40
M  V30 42 1 3 41
M  V30 43 1 6 42
M  V30 44 1 8 43
M  V30 45 1 14 44
M  V30 46 1 15 45
M  V30 47 1 18 46
M  V30 48 1 18 47
M  V30 49 1 19 48 CFG=3
M  V30 50 1 20 49
M  V30 51 1 23 50
M  V30 52 1 24 51 CFG=1
M  V30 53 1 25 52
M  V30 54 1 25 53
M  V30 55 1 26 54
M  V30 56 1 26 55
M  V30 57 1 27 56
M  V30 58 1 27 57
M  V30 59 1 28 58
M  V30 60 1 28 59
M  V30 61 1 29 60 CFG=3
M  V30 62 1 31 61
M  V30 63 1 31 62
M  V30 64 1 31 63
M  V30 65 1 32 64
M  V30 66 1 32 65
M  V30 67 1 32 66
M  V30 68 1 33 67
M  V30 69 1 34 68
M  V30 70 1 34 69
M  V30 71 1 34 70
M  V30 72 1 35 71
M  V30 73 1 35 72
M  V30 74 1 35 73
M  V30 END BOND
M  V30 END CTAB
M  END
>  <catalyst_id>  (1) 
IRLLKBMWBPBSAK_MISYRCLQSA_NONE

>  <source_smiles>  (1) 
CCNC(=O)Nc1cc(C(F)(F)F)ccc1OC[C@@H](NC(=S)N[C@@H]1CCCC[C@H]1N(C)C)C(C)C

>  <axial_configuration>  (1) 
none

>  <inchikey>  (1) 
IRLLKBMWBPBSAK-MISYRCLQSA-N

>  <build_source>  (1) 
smiles

>  <rdkit_version>  (1) 
2025.09.6

>  <random_seed>  (1) 
42

>  <generated_at>  (1) 
2026-05-19T12:32:38

$$$$
