catalyst90
     RDKit          3D

  0  0  0  0  0  0  0  0  0  0999 V3000
M  V30 BEGIN CTAB
M  V30 COUNTS 58 62 0 0 0
M  V30 BEGIN ATOM
M  V30 1 C 3.134053 3.674069 -0.316739 0
M  V30 2 C 2.466521 2.521561 -0.175848 0
M  V30 3 C 2.980094 1.332576 0.600535 0 CFG=1
M  V30 4 C 2.009016 0.914174 1.734960 0
M  V30 5 N 1.769575 -0.552869 1.762786 0
M  V30 6 C 3.088842 -1.227652 1.836736 0
M  V30 7 C 3.937004 -0.961733 0.582259 0
M  V30 8 C 3.238208 0.094516 -0.293447 0 CFG=1
M  V30 9 C 1.894279 -0.507840 -0.745687 0
M  V30 10 C 1.093488 -0.988517 0.491468 0 CFG=2
M  V30 11 C -0.432070 -0.622363 0.449337 0 CFG=1
M  V30 12 O -0.613989 0.739697 0.030104 0
M  V30 13 C -1.793706 1.329733 0.570337 0
M  V30 14 C -1.969410 2.678635 -0.072944 0
M  V30 15 C -2.842320 2.844208 -1.157030 0
M  V30 16 C -2.987708 4.092977 -1.763768 0
M  V30 17 C -2.256453 5.184762 -1.298988 0
M  V30 18 C -1.376215 5.028917 -0.229943 0
M  V30 19 C -1.230996 3.781575 0.378788 0
M  V30 20 C -1.188473 -1.571183 -0.481762 0
M  V30 21 C -1.413084 -1.191944 -1.812853 0
M  V30 22 C -2.097785 -2.050394 -2.646694 0
M  V30 23 N -2.566775 -3.251121 -2.259737 0
M  V30 24 C -2.347904 -3.640335 -0.994998 0
M  V30 25 C -2.826314 -4.886421 -0.613726 0
M  V30 26 C -2.639761 -5.385658 0.675103 0
M  V30 27 C -1.956483 -4.621826 1.602157 0
M  V30 28 O -1.782124 -5.139844 2.849898 0
M  V30 29 C -1.465335 -3.366396 1.257981 0
M  V30 30 C -1.654699 -2.845096 -0.048052 0
M  V30 31 H 4.113903 3.828115 0.123540 0
M  V30 32 H 2.704981 4.492898 -0.886848 0
M  V30 33 H 1.485605 2.431509 -0.641485 0
M  V30 34 H 3.937305 1.610949 1.065054 0
M  V30 35 H 2.443080 1.212871 2.699037 0
M  V30 36 H 1.058330 1.454632 1.691132 0
M  V30 37 H 2.948036 -2.307461 1.970236 0
M  V30 38 H 3.625875 -0.891830 2.732982 0
M  V30 39 H 4.070465 -1.890368 0.014293 0
M  V30 40 H 4.934962 -0.614182 0.874213 0
M  V30 41 H 3.859843 0.346666 -1.159751 0
M  V30 42 H 1.342679 0.219485 -1.348031 0
M  V30 43 H 2.084430 -1.366529 -1.402490 0
M  V30 44 H 1.140960 -2.087061 0.503811 0
M  V30 45 H -0.838900 -0.716704 1.463844 0
M  V30 46 H -1.690266 1.442993 1.656141 0
M  V30 47 H -2.670324 0.700110 0.377411 0
M  V30 48 H -3.411903 1.999138 -1.537112 0
M  V30 49 H -3.668810 4.213008 -2.602169 0
M  V30 50 H -2.368304 6.155814 -1.773862 0
M  V30 51 H -0.798235 5.877094 0.127142 0
M  V30 52 H -0.529715 3.668772 1.202666 0
M  V30 53 H -1.064478 -0.237540 -2.197200 0
M  V30 54 H -2.294384 -1.787263 -3.682112 0
M  V30 55 H -3.359250 -5.490040 -1.345040 0
M  V30 56 H -3.023515 -6.365292 0.944192 0
M  V30 57 H -1.276903 -4.509428 3.389513 0
M  V30 58 H -0.924940 -2.796561 2.007157 0
M  V30 END ATOM
M  V30 BEGIN BOND
M  V30 1 2 1 2
M  V30 2 1 2 3
M  V30 3 1 3 4
M  V30 4 1 4 5
M  V30 5 1 5 6
M  V30 6 1 6 7
M  V30 7 1 7 8
M  V30 8 1 8 9
M  V30 9 1 9 10
M  V30 10 1 10 11
M  V30 11 1 11 12
M  V30 12 1 12 13
M  V30 13 1 13 14
M  V30 14 2 14 15
M  V30 15 1 15 16
M  V30 16 2 16 17
M  V30 17 1 17 18
M  V30 18 2 18 19
M  V30 19 1 11 20
M  V30 20 2 20 21
M  V30 21 1 21 22
M  V30 22 2 22 23
M  V30 23 1 23 24
M  V30 24 2 24 25
M  V30 25 1 25 26
M  V30 26 2 26 27
M  V30 27 1 27 28
M  V30 28 1 27 29
M  V30 29 2 29 30
M  V30 30 1 8 3
M  V30 31 1 19 14
M  V30 32 1 30 20
M  V30 33 1 10 5
M  V30 34 1 30 24
M  V30 35 1 1 31
M  V30 36 1 1 32
M  V30 37 1 2 33
M  V30 38 1 3 34 CFG=1
M  V30 39 1 4 35
M  V30 40 1 4 36
M  V30 41 1 6 37
M  V30 42 1 6 38
M  V30 43 1 7 39
M  V30 44 1 7 40
M  V30 45 1 8 41 CFG=3
M  V30 46 1 9 42
M  V30 47 1 9 43
M  V30 48 1 10 44 CFG=1
M  V30 49 1 11 45 CFG=1
M  V30 50 1 13 46
M  V30 51 1 13 47
M  V30 52 1 15 48
M  V30 53 1 16 49
M  V30 54 1 17 50
M  V30 55 1 18 51
M  V30 56 1 19 52
M  V30 57 1 21 53
M  V30 58 1 22 54
M  V30 59 1 25 55
M  V30 60 1 26 56
M  V30 61 1 28 57
M  V30 62 1 29 58
M  V30 END BOND
M  V30 END CTAB
M  END
>  <catalyst_id>  (1) 
HFSYPELWEAKVJH_GLDZPFRISA_NONE

>  <source_smiles>  (1) 
C=C[C@H]1CN2CC[C@H]1C[C@@H]2[C@@H](OCc1ccccc1)c1ccnc2ccc(O)cc12

>  <axial_configuration>  (1) 
none

>  <inchikey>  (1) 
HFSYPELWEAKVJH-GLDZPFRISA-N

>  <build_source>  (1) 
smiles

>  <rdkit_version>  (1) 
2025.09.6

>  <random_seed>  (1) 
42

>  <generated_at>  (1) 
2026-05-19T12:30:16

$$$$
