catalyst270
     RDKit          3D

  0  0  0  0  0  0  0  0  0  0999 V3000
M  V30 BEGIN CTAB
M  V30 COUNTS 61 63 0 0 0
M  V30 BEGIN ATOM
M  V30 1 C 4.005976 -1.881377 4.025797 0
M  V30 2 C 3.396797 -2.117166 2.675674 0
M  V30 3 C 2.060795 -1.782475 2.431668 0
M  V30 4 C 1.501485 -1.974319 1.164827 0
M  V30 5 C 2.275370 -2.477463 0.118257 0
M  V30 6 N 1.763443 -2.716737 -1.175591 0
M  V30 7 C 0.551308 -2.376945 -1.675070 0
M  V30 8 S -0.292893 -3.473781 -2.609191 0
M  V30 9 N 0.039807 -1.135198 -1.498375 0
M  V30 10 C 0.770199 0.141696 -1.358611 0 CFG=2
M  V30 11 C 0.078757 1.068639 -0.321263 0
M  V30 12 P -1.594442 1.750034 -0.690772 0
M  V30 13 C -2.072330 2.625713 0.844992 0
M  V30 14 C -1.131694 3.177831 1.726747 0
M  V30 15 C -1.535171 3.858432 2.881080 0
M  V30 16 C -2.888133 4.011471 3.167575 0
M  V30 17 C -3.838860 3.492176 2.295642 0
M  V30 18 C -3.433931 2.813383 1.142583 0
M  V30 19 C -2.662376 0.276809 -0.618766 0
M  V30 20 C -2.721194 -0.567775 0.498944 0
M  V30 21 C -3.525896 -1.709321 0.489013 0
M  V30 22 C -4.284877 -2.018871 -0.636711 0
M  V30 23 C -4.245603 -1.184675 -1.750871 0
M  V30 24 C -3.441794 -0.042619 -1.741338 0
M  V30 25 C 1.174023 0.772259 -2.753647 0
M  V30 26 C 1.797921 2.171658 -2.564993 0
M  V30 27 C 2.255087 -0.108785 -3.428187 0
M  V30 28 C 0.003458 0.893300 -3.748233 0
M  V30 29 C 3.605880 -2.826371 0.363324 0
M  V30 30 C 4.167663 -2.633704 1.628896 0
M  V30 31 H 3.256492 -1.989245 4.816904 0
M  V30 32 H 4.429125 -0.873351 4.074113 0
M  V30 33 H 4.799108 -2.608571 4.229107 0
M  V30 34 H 1.438928 -1.383384 3.229946 0
M  V30 35 H 0.447662 -1.755254 1.022986 0
M  V30 36 H 2.195787 -3.499851 -1.653635 0
M  V30 37 H -0.882083 -1.049580 -1.913043 0
M  V30 38 H 1.730404 -0.099858 -0.889524 0
M  V30 39 H 0.022999 0.534736 0.633951 0
M  V30 40 H 0.750088 1.914294 -0.139258 0
M  V30 41 H -0.065773 3.101677 1.536159 0
M  V30 42 H -0.788498 4.274896 3.552395 0
M  V30 43 H -3.200844 4.541794 4.062914 0
M  V30 44 H -4.897931 3.616085 2.505887 0
M  V30 45 H -4.204013 2.429105 0.475707 0
M  V30 46 H -2.139102 -0.349589 1.391142 0
M  V30 47 H -3.555948 -2.358900 1.359849 0
M  V30 48 H -4.905372 -2.911164 -0.646286 0
M  V30 49 H -4.836961 -1.425214 -2.630580 0
M  V30 50 H -3.425334 0.591389 -2.625802 0
M  V30 51 H 2.625951 2.140582 -1.848036 0
M  V30 52 H 1.064399 2.901790 -2.209066 0
M  V30 53 H 2.195288 2.559449 -3.510461 0
M  V30 54 H 1.860652 -1.084838 -3.723589 0
M  V30 55 H 2.639022 0.364473 -4.339872 0
M  V30 56 H 3.109262 -0.271630 -2.761623 0
M  V30 57 H -0.491996 -0.067511 -3.917894 0
M  V30 58 H -0.748752 1.613157 -3.421014 0
M  V30 59 H 0.360136 1.243557 -4.724754 0
M  V30 60 H 4.227131 -3.231594 -0.431046 0
M  V30 61 H 5.211399 -2.893268 1.791673 0
M  V30 END ATOM
M  V30 BEGIN BOND
M  V30 1 1 1 2
M  V30 2 2 2 3
M  V30 3 1 3 4
M  V30 4 2 4 5
M  V30 5 1 5 6
M  V30 6 1 6 7
M  V30 7 2 7 8
M  V30 8 1 7 9
M  V30 9 1 9 10
M  V30 10 1 10 11
M  V30 11 1 11 12
M  V30 12 1 12 13
M  V30 13 2 13 14
M  V30 14 1 14 15
M  V30 15 2 15 16
M  V30 16 1 16 17
M  V30 17 2 17 18
M  V30 18 1 12 19
M  V30 19 2 19 20
M  V30 20 1 20 21
M  V30 21 2 21 22
M  V30 22 1 22 23
M  V30 23 2 23 24
M  V30 24 1 10 25
M  V30 25 1 25 26
M  V30 26 1 25 27
M  V30 27 1 25 28
M  V30 28 1 5 29
M  V30 29 2 29 30
M  V30 30 1 30 2
M  V30 31 1 18 13
M  V30 32 1 24 19
M  V30 33 1 1 31
M  V30 34 1 1 32
M  V30 35 1 1 33
M  V30 36 1 3 34
M  V30 37 1 4 35
M  V30 38 1 6 36
M  V30 39 1 9 37
M  V30 40 1 10 38 CFG=1
M  V30 41 1 11 39
M  V30 42 1 11 40
M  V30 43 1 14 41
M  V30 44 1 15 42
M  V30 45 1 16 43
M  V30 46 1 17 44
M  V30 47 1 18 45
M  V30 48 1 20 46
M  V30 49 1 21 47
M  V30 50 1 22 48
M  V30 51 1 23 49
M  V30 52 1 24 50
M  V30 53 1 26 51
M  V30 54 1 26 52
M  V30 55 1 26 53
M  V30 56 1 27 54
M  V30 57 1 27 55
M  V30 58 1 27 56
M  V30 59 1 28 57
M  V30 60 1 28 58
M  V30 61 1 28 59
M  V30 62 1 29 60
M  V30 63 1 30 61
M  V30 END BOND
M  V30 END CTAB
M  END
>  <catalyst_id>  (1) 
QBUCOARNYHTHRQ_XMMPIXPASA_NONE

>  <source_smiles>  (1) 
Cc1ccc(NC(=S)N[C@H](CP(c2ccccc2)c2ccccc2)C(C)(C)C)cc1

>  <axial_configuration>  (1) 
none

>  <inchikey>  (1) 
QBUCOARNYHTHRQ-XMMPIXPASA-N

>  <build_source>  (1) 
smiles

>  <rdkit_version>  (1) 
2025.09.6

>  <random_seed>  (1) 
42

>  <generated_at>  (1) 
2026-05-19T12:34:34

$$$$
