catalyst288
     RDKit          3D

  0  0  0  0  0  0  0  0  0  0999 V3000
M  V30 BEGIN CTAB
M  V30 COUNTS 55 57 0 0 0
M  V30 BEGIN ATOM
M  V30 1 C -2.957945 -3.781977 0.279415 0
M  V30 2 N -3.052144 -2.660931 -0.665913 0
M  V30 3 C -3.053673 -3.220112 -2.027771 0
M  V30 4 C -1.943178 -1.669064 -0.486351 0 CFG=2
M  V30 5 C -1.829141 -1.161834 0.975657 0
M  V30 6 C -3.043103 -0.342853 1.407922 0
M  V30 7 C -3.268254 0.851729 0.488119 0
M  V30 8 C -3.302765 0.452716 -0.987780 0
M  V30 9 C -2.097134 -0.406579 -1.414960 0 CFG=1
M  V30 10 N -0.872597 0.424817 -1.415217 0
M  V30 11 C 0.205395 0.150579 -2.124653 0
M  V30 12 C 1.426887 0.726876 -2.381591 0
M  V30 13 N 2.131400 1.796620 -2.066614 0
M  V30 14 C 1.801416 2.720050 -0.995375 0
M  V30 15 C 2.378914 2.231324 0.312666 0
M  V30 16 C 1.574870 1.542172 1.231428 0
M  V30 17 C 2.098099 1.061890 2.442085 0
M  V30 18 C 1.212832 0.302759 3.402980 0
M  V30 19 F 1.654485 0.351154 4.689978 0
M  V30 20 F -0.064694 0.775564 3.429604 0
M  V30 21 F 1.117741 -1.016919 3.085651 0
M  V30 22 C 3.458493 1.266290 2.720207 0
M  V30 23 C 4.288918 1.942105 1.810805 0
M  V30 24 C 5.747478 2.176050 2.130583 0
M  V30 25 F 5.941611 3.329165 2.826683 0
M  V30 26 F 6.528576 2.272167 1.019142 0
M  V30 27 F 6.292834 1.183358 2.886014 0
M  V30 28 C 3.735470 2.425106 0.613443 0
M  V30 29 C 1.825899 -0.389594 -3.278085 0
M  V30 30 O 2.772191 -0.715914 -3.950847 0
M  V30 31 C 0.511683 -1.011764 -3.003937 0
M  V30 32 O -0.008391 -2.033090 -3.381471 0
M  V30 33 H -3.162949 -3.459538 1.304422 0
M  V30 34 H -1.976480 -4.268262 0.245981 0
M  V30 35 H -3.720894 -4.539429 0.062784 0
M  V30 36 H -3.300846 -2.463502 -2.776783 0
M  V30 37 H -3.832421 -3.985615 -2.129381 0
M  V30 38 H -2.092508 -3.678012 -2.286311 0
M  V30 39 H -0.995403 -2.170971 -0.723467 0
M  V30 40 H -1.665969 -1.986321 1.677383 0
M  V30 41 H -0.931155 -0.539998 1.070249 0
M  V30 42 H -3.939720 -0.973379 1.417532 0
M  V30 43 H -2.897647 0.012209 2.434692 0
M  V30 44 H -4.208278 1.348365 0.754908 0
M  V30 45 H -2.472309 1.587749 0.653642 0
M  V30 46 H -4.227359 -0.105946 -1.179984 0
M  V30 47 H -3.354206 1.360087 -1.602234 0
M  V30 48 H -2.270913 -0.706037 -2.453085 0
M  V30 49 H -0.988494 1.334790 -0.976718 0
M  V30 50 H 3.103794 1.867935 -2.369789 0
M  V30 51 H 0.719291 2.875867 -0.912917 0
M  V30 52 H 2.225287 3.704470 -1.228683 0
M  V30 53 H 0.523921 1.371001 1.002349 0
M  V30 54 H 3.879152 0.890625 3.654892 0
M  V30 55 H 4.373931 2.952052 -0.096386 0
M  V30 END ATOM
M  V30 BEGIN BOND
M  V30 1 1 1 2
M  V30 2 1 2 3
M  V30 3 1 2 4
M  V30 4 1 4 5
M  V30 5 1 5 6
M  V30 6 1 6 7
M  V30 7 1 7 8
M  V30 8 1 8 9
M  V30 9 1 9 10
M  V30 10 1 10 11
M  V30 11 2 11 12
M  V30 12 1 12 13
M  V30 13 1 13 14
M  V30 14 1 14 15
M  V30 15 2 15 16
M  V30 16 1 16 17
M  V30 17 1 17 18
M  V30 18 1 18 19
M  V30 19 1 18 20
M  V30 20 1 18 21
M  V30 21 2 17 22
M  V30 22 1 22 23
M  V30 23 1 23 24
M  V30 24 1 24 25
M  V30 25 1 24 26
M  V30 26 1 24 27
M  V30 27 2 23 28
M  V30 28 1 12 29
M  V30 29 2 29 30
M  V30 30 1 29 31
M  V30 31 2 31 32
M  V30 32 1 9 4
M  V30 33 1 31 11
M  V30 34 1 28 15
M  V30 35 1 1 33
M  V30 36 1 1 34
M  V30 37 1 1 35
M  V30 38 1 3 36
M  V30 39 1 3 37
M  V30 40 1 3 38
M  V30 41 1 4 39 CFG=3
M  V30 42 1 5 40
M  V30 43 1 5 41
M  V30 44 1 6 42
M  V30 45 1 6 43
M  V30 46 1 7 44
M  V30 47 1 7 45
M  V30 48 1 8 46
M  V30 49 1 8 47
M  V30 50 1 9 48 CFG=3
M  V30 51 1 10 49
M  V30 52 1 13 50
M  V30 53 1 14 51
M  V30 54 1 14 52
M  V30 55 1 16 53
M  V30 56 1 22 54
M  V30 57 1 28 55
M  V30 END BOND
M  V30 END CTAB
M  END
>  <catalyst_id>  (1) 
QUEMAAMAMUFDGW_HUUCEWRRSA_NONE

>  <source_smiles>  (1) 
CN(C)[C@@H]1CCCC[C@H]1Nc1c(NCc2cc(C(F)(F)F)cc(C(F)(F)F)c2)c(=O)c1=O

>  <axial_configuration>  (1) 
none

>  <inchikey>  (1) 
QUEMAAMAMUFDGW-HUUCEWRRSA-N

>  <build_source>  (1) 
smiles

>  <rdkit_version>  (1) 
2025.09.6

>  <random_seed>  (1) 
42

>  <generated_at>  (1) 
2026-05-19T12:34:52

$$$$
