catalyst282
     RDKit          3D

  0  0  0  0  0  0  0  0  0  0999 V3000
M  V30 BEGIN CTAB
M  V30 COUNTS 117 122 0 0 0
M  V30 BEGIN ATOM
M  V30 1 C -7.884939 2.978516 0.718724 0
M  V30 2 C -8.094555 1.489104 0.368904 0
M  V30 3 C -9.117098 1.432424 -0.788769 0
M  V30 4 C -8.735626 0.768952 1.575464 0
M  V30 5 C -6.738566 0.840645 0.038479 0
M  V30 6 C -5.724107 0.813350 1.013301 0
M  V30 7 C -4.465145 0.255484 0.760667 0
M  V30 8 C -3.436668 0.189746 1.826305 0
M  V30 9 C -3.362859 -1.016460 2.553640 0
M  V30 10 C -2.436540 -1.215156 3.574920 0
M  V30 11 C -2.397092 -2.443057 4.260804 0
M  V30 12 C -1.479563 -2.666220 5.284069 0
M  V30 13 C -0.592638 -1.660578 5.634976 0
M  V30 14 C -0.627671 -0.438555 4.957763 0
M  V30 15 C -1.547003 -0.177294 3.906784 0
M  V30 16 C -1.619140 1.067538 3.175998 0
M  V30 17 C -0.630447 2.148244 3.529537 0
M  V30 18 C 0.638345 2.201794 2.866206 0
M  V30 19 C 0.865825 1.338526 1.632846 0
M  V30 20 N 0.835201 1.988811 0.209563 0 CHG=1
M  V30 21 C 0.356523 3.433403 0.244223 0
M  V30 22 C 2.190913 1.915992 -0.443772 0
M  V30 23 C -0.158836 1.203332 -0.647097 0
M  V30 24 C 1.649739 3.052103 3.380448 0
M  V30 25 C 3.033956 3.079128 2.873027 0
M  V30 26 C 3.553407 4.231931 2.261346 0
M  V30 27 C 4.865640 4.281689 1.767371 0
M  V30 28 C 5.445454 5.533524 1.081551 0
M  V30 29 C 5.872870 5.181731 -0.360078 0
M  V30 30 C 4.450286 6.712433 0.985011 0
M  V30 31 C 6.673630 6.037450 1.869650 0
M  V30 32 C 5.663444 3.126543 1.922912 0
M  V30 33 C 5.199296 1.959252 2.555234 0
M  V30 34 C 6.076121 0.707780 2.744797 0
M  V30 35 C 5.402607 -0.502849 2.061482 0
M  V30 36 C 6.242902 0.414424 4.251230 0
M  V30 37 C 7.494111 0.837542 2.144161 0
M  V30 38 C 3.877589 1.969879 3.034373 0
M  V30 39 C 1.344100 3.895136 4.465749 0
M  V30 40 C 0.081358 3.918872 5.067522 0
M  V30 41 C -0.174405 4.793411 6.139366 0
M  V30 42 C -1.420351 4.821549 6.762607 0
M  V30 43 C -2.426130 3.975510 6.319769 0
M  V30 44 C -2.179609 3.101134 5.259315 0
M  V30 45 C -0.924365 3.044044 4.607314 0
M  V30 46 C -2.573668 1.290067 2.120707 0
M  V30 47 O -2.641073 2.399878 1.482209 0 CHG=-1
M  V30 48 C -4.222296 -0.301386 -0.502597 0
M  V30 49 C -5.196227 -0.304500 -1.518382 0
M  V30 50 C -4.868627 -0.918126 -2.890467 0
M  V30 51 C -6.029525 -0.842480 -3.907911 0
M  V30 52 C -4.510867 -2.410479 -2.718422 0
M  V30 53 C -3.666595 -0.176707 -3.516124 0
M  V30 54 C -6.446652 0.272219 -1.217979 0
M  V30 55 H -7.402837 3.513606 -0.108059 0
M  V30 56 H -7.257373 3.111969 1.606699 0
M  V30 57 H -8.840697 3.474437 0.924851 0
M  V30 58 H -9.342942 0.399197 -1.077314 0
M  V30 59 H -10.065987 1.901034 -0.501069 0
M  V30 60 H -8.753068 1.963983 -1.675739 0
M  V30 61 H -9.721334 1.188642 1.808251 0
M  V30 62 H -8.128652 0.857934 2.483042 0
M  V30 63 H -8.867935 -0.300248 1.371489 0
M  V30 64 H -5.886022 1.256120 1.994626 0
M  V30 65 H -4.061230 -1.811989 2.297667 0
M  V30 66 H -3.094595 -3.236455 4.000319 0
M  V30 67 H -1.468281 -3.616945 5.808952 0
M  V30 68 H 0.118513 -1.813570 6.441715 0
M  V30 69 H 0.070526 0.331322 5.278664 0
M  V30 70 H 0.175157 0.491251 1.600662 0
M  V30 71 H 1.836654 0.838252 1.719776 0
M  V30 72 H 1.126512 4.049571 0.711089 0
M  V30 73 H 0.214874 3.772551 -0.787339 0
M  V30 74 H -0.575551 3.517186 0.790095 0
M  V30 75 H 2.508286 0.869389 -0.483193 0
M  V30 76 H 2.114173 2.321169 -1.457813 0
M  V30 77 H 2.901028 2.507082 0.131196 0
M  V30 78 H -1.154704 1.272267 -0.225937 0
M  V30 79 H -0.154320 1.625098 -1.657426 0
M  V30 80 H 0.169275 0.159539 -0.683129 0
M  V30 81 H 2.897651 5.096223 2.179781 0
M  V30 82 H 6.666917 4.427548 -0.385810 0
M  V30 83 H 5.027186 4.788620 -0.936957 0
M  V30 84 H 6.253912 6.064953 -0.886021 0
M  V30 85 H 3.559362 6.442175 0.406062 0
M  V30 86 H 4.907805 7.575814 0.487049 0
M  V30 87 H 4.125286 7.048615 1.976545 0
M  V30 88 H 6.408587 6.265411 2.908903 0
M  V30 89 H 7.484329 5.301081 1.891266 0
M  V30 90 H 7.083084 6.950501 1.421776 0
M  V30 91 H 6.683627 3.160489 1.548549 0
M  V30 92 H 6.024557 -1.401573 2.147158 0
M  V30 93 H 4.430779 -0.743636 2.506167 0
M  V30 94 H 5.237252 -0.311520 0.994466 0
M  V30 95 H 6.690948 1.269013 4.772002 0
M  V30 96 H 5.286995 0.196335 4.739871 0
M  V30 97 H 6.891750 -0.453882 4.415283 0
M  V30 98 H 8.057650 1.653502 2.611489 0
M  V30 99 H 7.459362 1.020318 1.063779 0
M  V30 100 H 8.073419 -0.081009 2.297059 0
M  V30 101 H 3.488548 1.099211 3.561682 0
M  V30 102 H 2.124078 4.547888 4.859042 0
M  V30 103 H 0.600809 5.466466 6.498429 0
M  V30 104 H -1.606585 5.506351 7.584684 0
M  V30 105 H -3.408345 3.994114 6.783474 0
M  V30 106 H -2.997968 2.468181 4.915769 0
M  V30 107 H -3.241640 -0.734085 -0.679568 0
M  V30 108 H -5.744370 -1.291960 -4.866765 0
M  V30 109 H -6.914842 -1.381673 -3.551149 0
M  V30 110 H -6.319651 0.194627 -4.112942 0
M  V30 111 H -3.620028 -2.554875 -2.097366 0
M  V30 112 H -4.305572 -2.881953 -3.686655 0
M  V30 113 H -5.333420 -2.961204 -2.246820 0
M  V30 114 H -2.757448 -0.275368 -2.912790 0
M  V30 115 H -3.433606 -0.571454 -4.512012 0
M  V30 116 H -3.876022 0.894360 -3.622311 0
M  V30 117 H -7.212446 0.287428 -1.984755 0
M  V30 END ATOM
M  V30 BEGIN BOND
M  V30 1 1 1 2
M  V30 2 1 2 3
M  V30 3 1 2 4
M  V30 4 1 2 5
M  V30 5 2 5 6
M  V30 6 1 6 7
M  V30 7 1 7 8
M  V30 8 2 8 9
M  V30 9 1 9 10
M  V30 10 2 10 11
M  V30 11 1 11 12
M  V30 12 2 12 13
M  V30 13 1 13 14
M  V30 14 2 14 15
M  V30 15 1 15 16
M  V30 16 1 16 17
M  V30 17 2 17 18
M  V30 18 1 18 19
M  V30 19 1 19 20
M  V30 20 1 20 21
M  V30 21 1 20 22
M  V30 22 1 20 23
M  V30 23 1 18 24
M  V30 24 1 24 25
M  V30 25 2 25 26
M  V30 26 1 26 27
M  V30 27 1 27 28
M  V30 28 1 28 29
M  V30 29 1 28 30
M  V30 30 1 28 31
M  V30 31 2 27 32
M  V30 32 1 32 33
M  V30 33 1 33 34
M  V30 34 1 34 35
M  V30 35 1 34 36
M  V30 36 1 34 37
M  V30 37 2 33 38
M  V30 38 2 24 39
M  V30 39 1 39 40
M  V30 40 2 40 41
M  V30 41 1 41 42
M  V30 42 2 42 43
M  V30 43 1 43 44
M  V30 44 2 44 45
M  V30 45 2 16 46
M  V30 46 1 46 47
M  V30 47 2 7 48
M  V30 48 1 48 49
M  V30 49 1 49 50
M  V30 50 1 50 51
M  V30 51 1 50 52
M  V30 52 1 50 53
M  V30 53 2 49 54
M  V30 54 1 54 5
M  V30 55 1 46 8
M  V30 56 1 15 10
M  V30 57 1 45 17
M  V30 58 1 38 25
M  V30 59 1 45 40
M  V30 60 1 1 55
M  V30 61 1 1 56
M  V30 62 1 1 57
M  V30 63 1 3 58
M  V30 64 1 3 59
M  V30 65 1 3 60
M  V30 66 1 4 61
M  V30 67 1 4 62
M  V30 68 1 4 63
M  V30 69 1 6 64
M  V30 70 1 9 65
M  V30 71 1 11 66
M  V30 72 1 12 67
M  V30 73 1 13 68
M  V30 74 1 14 69
M  V30 75 1 19 70
M  V30 76 1 19 71
M  V30 77 1 21 72
M  V30 78 1 21 73
M  V30 79 1 21 74
M  V30 80 1 22 75
M  V30 81 1 22 76
M  V30 82 1 22 77
M  V30 83 1 23 78
M  V30 84 1 23 79
M  V30 85 1 23 80
M  V30 86 1 26 81
M  V30 87 1 29 82
M  V30 88 1 29 83
M  V30 89 1 29 84
M  V30 90 1 30 85
M  V30 91 1 30 86
M  V30 92 1 30 87
M  V30 93 1 31 88
M  V30 94 1 31 89
M  V30 95 1 31 90
M  V30 96 1 32 91
M  V30 97 1 35 92
M  V30 98 1 35 93
M  V30 99 1 35 94
M  V30 100 1 36 95
M  V30 101 1 36 96
M  V30 102 1 36 97
M  V30 103 1 37 98
M  V30 104 1 37 99
M  V30 105 1 37 100
M  V30 106 1 38 101
M  V30 107 1 39 102
M  V30 108 1 41 103
M  V30 109 1 42 104
M  V30 110 1 43 105
M  V30 111 1 44 106
M  V30 112 1 48 107
M  V30 113 1 51 108
M  V30 114 1 51 109
M  V30 115 1 51 110
M  V30 116 1 52 111
M  V30 117 1 52 112
M  V30 118 1 52 113
M  V30 119 1 53 114
M  V30 120 1 53 115
M  V30 121 1 53 116
M  V30 122 1 54 117
M  V30 END BOND
M  V30 END CTAB
M  END
>  <catalyst_id>  (1) 
QPGRULGAPWXBOO_UHFFFAOYSA_R

>  <source_smiles>  (1) 
CC(C)(C)c1cc(-c2cc3ccccc3c(-c3c(C[N+](C)(C)C)c(-c4cc(C(C)(C)C)cc(C(C)(C)C)c4)cc4ccccc34)c2[O-])cc(C(C)(C)C)c1

>  <axial_configuration>  (1) 
R

>  <inchikey>  (1) 
QPGRULGAPWXBOO-UHFFFAOYSA-N

>  <build_source>  (1) 
smiles+axial_free

>  <final_biaryl_angle_deg>  (1) 
95.00

>  <rdkit_version>  (1) 
2025.09.6

>  <random_seed>  (1) 
42

>  <generated_at>  (1) 
2026-05-19T12:34:16

$$$$
