catalyst319
     RDKit          3D

  0  0  0  0  0  0  0  0  0  0999 V3000
M  V30 BEGIN CTAB
M  V30 COUNTS 38 37 0 0 0
M  V30 BEGIN ATOM
M  V30 1 C 2.020466 -2.134218 -1.240231 0
M  V30 2 C 1.913967 -0.719481 -0.664958 0 CFG=1
M  V30 3 O 0.653668 -0.610746 0.022760 0
M  V30 4 Si -0.618863 0.262057 -0.636561 0 VAL=4
M  V30 5 C -1.173283 -0.423214 -2.289771 0
M  V30 6 C -0.217096 2.087340 -0.790848 0
M  V30 7 C -2.224256 0.096067 0.674084 0
M  V30 8 C -1.800956 0.668161 2.042775 0
M  V30 9 C -3.426260 0.882936 0.118038 0
M  V30 10 C -2.587197 -1.396055 0.819655 0
M  V30 11 C 3.057210 -0.446108 0.345920 0 CFG=2
M  V30 12 N 2.915039 -1.273347 1.576473 0
M  V30 13 C 3.085799 1.038714 0.719099 0
M  V30 14 O 3.010853 1.507093 1.846000 0
M  V30 15 O 3.279811 1.854653 -0.337268 0
M  V30 16 H 1.878306 -2.894864 -0.465072 0
M  V30 17 H 1.238229 -2.305107 -1.987218 0
M  V30 18 H 2.991075 -2.294060 -1.719650 0
M  V30 19 H 1.979841 -0.003388 -1.494956 0
M  V30 20 H -2.038611 0.126325 -2.671082 0
M  V30 21 H -0.369893 -0.341496 -3.028003 0
M  V30 22 H -1.447580 -1.478393 -2.202734 0
M  V30 23 H -1.086235 2.650513 -1.142290 0
M  V30 24 H 0.595849 2.242688 -1.506121 0
M  V30 25 H 0.094022 2.500758 0.172731 0
M  V30 26 H -1.539572 1.729859 1.972514 0
M  V30 27 H -0.932465 0.137527 2.449578 0
M  V30 28 H -2.615789 0.576940 2.769991 0
M  V30 29 H -3.742515 0.500400 -0.858545 0
M  V30 30 H -3.193200 1.946802 0.000305 0
M  V30 31 H -4.284854 0.807181 0.795044 0
M  V30 32 H -2.894760 -1.831344 -0.137618 0
M  V30 33 H -3.417725 -1.526348 1.522786 0
M  V30 34 H -1.740098 -1.981444 1.195124 0
M  V30 35 H 4.031968 -0.676286 -0.099541 0
M  V30 36 H 1.919164 -1.250301 1.821723 0
M  V30 37 H 3.378087 -0.779419 2.343932 0
M  V30 38 H 3.307857 2.749604 0.063937 0
M  V30 END ATOM
M  V30 BEGIN BOND
M  V30 1 1 1 2
M  V30 2 1 2 3
M  V30 3 1 3 4
M  V30 4 1 4 5
M  V30 5 1 4 6
M  V30 6 1 4 7
M  V30 7 1 7 8
M  V30 8 1 7 9
M  V30 9 1 7 10
M  V30 10 1 2 11
M  V30 11 1 11 12
M  V30 12 1 11 13
M  V30 13 2 13 14
M  V30 14 1 13 15
M  V30 15 1 1 16
M  V30 16 1 1 17
M  V30 17 1 1 18
M  V30 18 1 2 19 CFG=3
M  V30 19 1 5 20
M  V30 20 1 5 21
M  V30 21 1 5 22
M  V30 22 1 6 23
M  V30 23 1 6 24
M  V30 24 1 6 25
M  V30 25 1 8 26
M  V30 26 1 8 27
M  V30 27 1 8 28
M  V30 28 1 9 29
M  V30 29 1 9 30
M  V30 30 1 9 31
M  V30 31 1 10 32
M  V30 32 1 10 33
M  V30 33 1 10 34
M  V30 34 1 11 35 CFG=3
M  V30 35 1 12 36
M  V30 36 1 12 37
M  V30 37 1 15 38
M  V30 END BOND
M  V30 END CTAB
M  END
>  <catalyst_id>  (1) 
SAMJFDBTWRTDMK_SFYZADRCSA_NONE

>  <source_smiles>  (1) 
C[C@@H](O[Si](C)(C)C(C)(C)C)[C@H](N)C(=O)O

>  <axial_configuration>  (1) 
none

>  <inchikey>  (1) 
SAMJFDBTWRTDMK-SFYZADRCSA-N

>  <build_source>  (1) 
smiles

>  <rdkit_version>  (1) 
2025.09.6

>  <random_seed>  (1) 
42

>  <generated_at>  (1) 
2026-05-19T12:29:58

$$$$
