catalyst205
     RDKit          3D

  0  0  0  0  0  0  0  0  0  0999 V3000
M  V30 BEGIN CTAB
M  V30 COUNTS 64 66 0 0 0
M  V30 BEGIN ATOM
M  V30 1 C -0.803193 3.839742 1.502564 0
M  V30 2 C -0.043517 2.967671 2.519916 0
M  V30 3 C 1.369491 3.583806 2.682547 0
M  V30 4 C -0.753526 3.077499 3.883735 0
M  V30 5 C 0.119247 1.461419 2.092695 0 CFG=1
M  V30 6 C -1.106840 0.514774 2.214363 0
M  V30 7 P -2.577750 0.834470 1.148896 0
M  V30 8 C -3.707002 -0.565399 1.484215 0
M  V30 9 C -4.751822 -0.828313 0.579734 0
M  V30 10 C -5.652140 -1.875704 0.794737 0
M  V30 11 C -5.531832 -2.674798 1.926462 0
M  V30 12 C -4.515961 -2.421774 2.843166 0
M  V30 13 C -3.615235 -1.372849 2.626476 0
M  V30 14 C -1.990588 0.420038 -0.524495 0
M  V30 15 C -1.467322 -0.836341 -0.859057 0
M  V30 16 C -1.015209 -1.099946 -2.154807 0
M  V30 17 C -1.079359 -0.110996 -3.133275 0
M  V30 18 C -1.600805 1.141156 -2.818621 0
M  V30 19 C -2.056063 1.404005 -1.523876 0
M  V30 20 N 0.773272 1.339118 0.785728 0
M  V30 21 C 1.584379 0.256278 0.497753 0
M  V30 22 O 1.906565 -0.568306 1.342248 0
M  V30 23 N 1.961104 0.267987 -0.827138 0
M  V30 24 C 2.739488 -0.681971 -1.513967 0
M  V30 25 C 3.312292 -1.804010 -0.913593 0
M  V30 26 C 4.074257 -2.717363 -1.663494 0
M  V30 27 C 4.669902 -3.930308 -0.988043 0
M  V30 28 F 3.739081 -4.889911 -0.733232 0
M  V30 29 F 5.256749 -3.642607 0.205399 0
M  V30 30 F 5.633686 -4.537498 -1.736989 0
M  V30 31 C 4.243051 -2.498421 -3.039521 0
M  V30 32 C 3.669152 -1.381609 -3.663440 0
M  V30 33 C 3.861808 -1.129944 -5.138954 0
M  V30 34 F 4.143518 -2.259208 -5.844982 0
M  V30 35 F 4.881822 -0.264645 -5.386846 0
M  V30 36 F 2.758794 -0.588386 -5.728037 0
M  V30 37 C 2.929451 -0.475668 -2.885630 0
M  V30 38 H -1.861843 3.580473 1.441268 0
M  V30 39 H -0.764782 4.896648 1.794215 0
M  V30 40 H -0.371592 3.771411 0.499176 0
M  V30 41 H 1.965615 3.022376 3.410840 0
M  V30 42 H 1.917186 3.591963 1.733813 0
M  V30 43 H 1.312976 4.620239 3.035350 0
M  V30 44 H -0.751295 4.111263 4.248732 0
M  V30 45 H -1.800248 2.762652 3.823088 0
M  V30 46 H -0.255621 2.459751 4.639383 0
M  V30 47 H 0.835802 1.041995 2.815500 0
M  V30 48 H -0.768480 -0.513816 2.038876 0
M  V30 49 H -1.441232 0.540863 3.257147 0
M  V30 50 H -4.876380 -0.217408 -0.312691 0
M  V30 51 H -6.446370 -2.062656 0.076916 0
M  V30 52 H -6.230468 -3.489484 2.096481 0
M  V30 53 H -4.422596 -3.039180 3.733100 0
M  V30 54 H -2.847119 -1.209678 3.376000 0
M  V30 55 H -1.403643 -1.628351 -0.114941 0
M  V30 56 H -0.612931 -2.081212 -2.395259 0
M  V30 57 H -0.734995 -0.322369 -4.142616 0
M  V30 58 H -1.668428 1.910159 -3.584279 0
M  V30 59 H -2.472661 2.385900 -1.305218 0
M  V30 60 H 0.238878 1.687789 0.004777 0
M  V30 61 H 1.597394 1.035519 -1.371071 0
M  V30 62 H 3.186648 -1.996025 0.149883 0
M  V30 63 H 4.826930 -3.206334 -3.630506 0
M  V30 64 H 2.490313 0.395522 -3.370602 0
M  V30 END ATOM
M  V30 BEGIN BOND
M  V30 1 1 1 2
M  V30 2 1 2 3
M  V30 3 1 2 4
M  V30 4 1 2 5
M  V30 5 1 5 6
M  V30 6 1 6 7
M  V30 7 1 7 8
M  V30 8 2 8 9
M  V30 9 1 9 10
M  V30 10 2 10 11
M  V30 11 1 11 12
M  V30 12 2 12 13
M  V30 13 1 7 14
M  V30 14 2 14 15
M  V30 15 1 15 16
M  V30 16 2 16 17
M  V30 17 1 17 18
M  V30 18 2 18 19
M  V30 19 1 5 20
M  V30 20 1 20 21
M  V30 21 2 21 22
M  V30 22 1 21 23
M  V30 23 1 23 24
M  V30 24 2 24 25
M  V30 25 1 25 26
M  V30 26 1 26 27
M  V30 27 1 27 28
M  V30 28 1 27 29
M  V30 29 1 27 30
M  V30 30 2 26 31
M  V30 31 1 31 32
M  V30 32 1 32 33
M  V30 33 1 33 34
M  V30 34 1 33 35
M  V30 35 1 33 36
M  V30 36 2 32 37
M  V30 37 1 13 8
M  V30 38 1 19 14
M  V30 39 1 37 24
M  V30 40 1 1 38
M  V30 41 1 1 39
M  V30 42 1 1 40
M  V30 43 1 3 41
M  V30 44 1 3 42
M  V30 45 1 3 43
M  V30 46 1 4 44
M  V30 47 1 4 45
M  V30 48 1 4 46
M  V30 49 1 5 47 CFG=1
M  V30 50 1 6 48
M  V30 51 1 6 49
M  V30 52 1 9 50
M  V30 53 1 10 51
M  V30 54 1 11 52
M  V30 55 1 12 53
M  V30 56 1 13 54
M  V30 57 1 15 55
M  V30 58 1 16 56
M  V30 59 1 17 57
M  V30 60 1 18 58
M  V30 61 1 19 59
M  V30 62 1 20 60
M  V30 63 1 23 61
M  V30 64 1 25 62
M  V30 65 1 31 63
M  V30 66 1 37 64
M  V30 END BOND
M  V30 END CTAB
M  END
>  <catalyst_id>  (1) 
MXKFIRMVKGQSJL_HSZRJFAPSA_NONE

>  <source_smiles>  (1) 
CC(C)(C)[C@@H](CP(c1ccccc1)c1ccccc1)NC(=O)Nc1cc(C(F)(F)F)cc(C(F)(F)F)c1

>  <axial_configuration>  (1) 
none

>  <inchikey>  (1) 
MXKFIRMVKGQSJL-HSZRJFAPSA-N

>  <build_source>  (1) 
smiles

>  <rdkit_version>  (1) 
2025.09.6

>  <random_seed>  (1) 
42

>  <generated_at>  (1) 
2026-05-19T12:34:18

$$$$
