catalyst136
     RDKit          3D

  0  0  0  0  0  0  0  0  0  0999 V3000
M  V30 BEGIN CTAB
M  V30 COUNTS 55 57 0 0 0
M  V30 BEGIN ATOM
M  V30 1 F 6.760562 -2.435756 0.122814 0
M  V30 2 C 6.115456 -1.756543 -0.863529 0
M  V30 3 F 7.087346 -1.244405 -1.667684 0
M  V30 4 F 5.473170 -2.698097 -1.609969 0
M  V30 5 C 5.182275 -0.702630 -0.318471 0
M  V30 6 C 3.852835 -1.027746 -0.000406 0
M  V30 7 C 2.979315 -0.077834 0.545427 0
M  V30 8 N 1.659807 -0.503363 0.808485 0
M  V30 9 C 0.680659 0.012383 1.619526 0
M  V30 10 S 0.823369 1.140073 2.842611 0
M  V30 11 N -0.573537 -0.493947 1.409058 0
M  V30 12 C -1.092304 -1.237078 0.252362 0 CFG=1
M  V30 13 C -0.922550 -2.752178 0.444042 0
M  V30 14 C -1.456328 -3.522923 -0.761027 0
M  V30 15 C -2.910483 -3.174210 -1.061919 0
M  V30 16 C -3.123402 -1.666998 -1.212699 0
M  V30 17 C -2.606007 -0.905716 0.022929 0 CFG=2
M  V30 18 N -2.860297 0.555161 0.030064 0
M  V30 19 C -4.282534 0.877194 0.216812 0
M  V30 20 C -4.478173 2.375846 0.453966 0
M  V30 21 C -3.878774 3.199513 -0.679192 0
M  V30 22 C -2.430256 2.793643 -0.922219 0
M  V30 23 C -2.298712 1.281087 -1.116817 0
M  V30 24 C 3.440114 1.225404 0.733933 0
M  V30 25 C 4.765569 1.580876 0.424702 0
M  V30 26 C 5.245630 2.992713 0.667515 0
M  V30 27 F 6.326868 3.322595 -0.094187 0
M  V30 28 F 5.622659 3.198339 1.958143 0
M  V30 29 F 4.300598 3.933033 0.392009 0
M  V30 30 C 5.633514 0.603733 -0.085160 0
M  V30 31 H 3.510039 -2.048258 -0.169036 0
M  V30 32 H 1.438932 -1.425256 0.464548 0
M  V30 33 H -1.285021 0.016874 1.927133 0
M  V30 34 H -0.511292 -0.931430 -0.626336 0
M  V30 35 H -1.451768 -3.073969 1.350536 0
M  V30 36 H 0.128947 -3.015326 0.598846 0
M  V30 37 H -1.367882 -4.599684 -0.577433 0
M  V30 38 H -0.838629 -3.297535 -1.639134 0
M  V30 39 H -3.228130 -3.683277 -1.979001 0
M  V30 40 H -3.548490 -3.550604 -0.252647 0
M  V30 41 H -2.605086 -1.326703 -2.117248 0
M  V30 42 H -4.192283 -1.482405 -1.364768 0
M  V30 43 H -3.132970 -1.308774 0.901071 0
M  V30 44 H -4.678030 0.345862 1.090777 0
M  V30 45 H -4.876547 0.566640 -0.651241 0
M  V30 46 H -4.006916 2.661937 1.402973 0
M  V30 47 H -5.546883 2.599333 0.548045 0
M  V30 48 H -3.935846 4.267025 -0.440056 0
M  V30 49 H -4.461869 3.041926 -1.594804 0
M  V30 50 H -2.044412 3.314902 -1.805638 0
M  V30 51 H -1.813771 3.108732 -0.070542 0
M  V30 52 H -2.799224 0.992532 -2.049279 0
M  V30 53 H -1.233330 1.060115 -1.236644 0
M  V30 54 H 2.776379 2.008082 1.091088 0
M  V30 55 H 6.667693 0.867093 -0.314195 0
M  V30 END ATOM
M  V30 BEGIN BOND
M  V30 1 1 1 2
M  V30 2 1 2 3
M  V30 3 1 2 4
M  V30 4 1 2 5
M  V30 5 2 5 6
M  V30 6 1 6 7
M  V30 7 1 7 8
M  V30 8 1 8 9
M  V30 9 2 9 10
M  V30 10 1 9 11
M  V30 11 1 11 12
M  V30 12 1 12 13
M  V30 13 1 13 14
M  V30 14 1 14 15
M  V30 15 1 15 16
M  V30 16 1 16 17
M  V30 17 1 17 18
M  V30 18 1 18 19
M  V30 19 1 19 20
M  V30 20 1 20 21
M  V30 21 1 21 22
M  V30 22 1 22 23
M  V30 23 2 7 24
M  V30 24 1 24 25
M  V30 25 1 25 26
M  V30 26 1 26 27
M  V30 27 1 26 28
M  V30 28 1 26 29
M  V30 29 2 25 30
M  V30 30 1 30 5
M  V30 31 1 17 12
M  V30 32 1 23 18
M  V30 33 1 6 31
M  V30 34 1 8 32
M  V30 35 1 11 33
M  V30 36 1 12 34 CFG=3
M  V30 37 1 13 35
M  V30 38 1 13 36
M  V30 39 1 14 37
M  V30 40 1 14 38
M  V30 41 1 15 39
M  V30 42 1 15 40
M  V30 43 1 16 41
M  V30 44 1 16 42
M  V30 45 1 17 43 CFG=1
M  V30 46 1 19 44
M  V30 47 1 19 45
M  V30 48 1 20 46
M  V30 49 1 20 47
M  V30 50 1 21 48
M  V30 51 1 21 49
M  V30 52 1 22 50
M  V30 53 1 22 51
M  V30 54 1 23 52
M  V30 55 1 23 53
M  V30 56 1 24 54
M  V30 57 1 30 55
M  V30 END BOND
M  V30 END CTAB
M  END
>  <catalyst_id>  (1) 
JPNIOHVSKNMMJH_IRXDYDNUSA_NONE

>  <source_smiles>  (1) 
FC(F)(F)c1cc(NC(=S)N[C@H]2CCCC[C@@H]2N2CCCCC2)cc(C(F)(F)F)c1

>  <axial_configuration>  (1) 
none

>  <inchikey>  (1) 
JPNIOHVSKNMMJH-IRXDYDNUSA-N

>  <build_source>  (1) 
smiles

>  <rdkit_version>  (1) 
2025.09.6

>  <random_seed>  (1) 
42

>  <generated_at>  (1) 
2026-05-19T12:34:55

$$$$
