catalyst394
     RDKit          3D

  0  0  0  0  0  0  0  0  0  0999 V3000
M  V30 BEGIN CTAB
M  V30 COUNTS 47 46 0 0 0
M  V30 BEGIN ATOM
M  V30 1 C -0.094937 1.366401 -2.287751 0
M  V30 2 C -0.946961 1.489231 -1.020124 0
M  V30 3 C -2.410791 1.726454 -1.410666 0
M  V30 4 Si -0.714791 0.044875 0.273683 0 VAL=4
M  V30 5 O 0.873605 -0.130231 0.798721 0
M  V30 6 C 1.917040 -0.650879 -0.044631 0 CFG=2
M  V30 7 C 2.191499 -2.091744 0.401134 0
M  V30 8 C 3.178754 0.231792 0.148641 0 CFG=2
M  V30 9 N 2.849855 1.679660 0.045465 0
M  V30 10 C 4.265831 -0.101942 -0.875389 0
M  V30 11 O 4.231128 -0.945431 -1.756392 0
M  V30 12 O 5.375371 0.658861 -0.711503 0
M  V30 13 C -1.757449 0.618135 1.936807 0
M  V30 14 C -1.580023 -0.408493 3.062277 0
M  V30 15 C -1.321740 2.009803 2.408158 0
M  V30 16 C -1.512930 -1.643387 -0.311288 0
M  V30 17 C -1.108456 -2.072161 -1.725640 0
M  V30 18 C -3.042530 -1.692249 -0.190725 0
M  V30 19 H -0.248423 2.235195 -2.938037 0
M  V30 20 H 0.972138 1.329555 -2.055393 0
M  V30 21 H -0.343424 0.473787 -2.867900 0
M  V30 22 H -0.598264 2.384242 -0.490257 0
M  V30 23 H -3.053334 1.846474 -0.532501 0
M  V30 24 H -2.503533 2.639329 -2.009826 0
M  V30 25 H -2.804878 0.899910 -2.010805 0
M  V30 26 H 1.622591 -0.648644 -1.100249 0
M  V30 27 H 2.464150 -2.125291 1.462049 0
M  V30 28 H 2.991961 -2.558543 -0.178357 0
M  V30 29 H 1.295608 -2.710532 0.293494 0
M  V30 30 H 3.589640 0.053776 1.150239 0
M  V30 31 H 2.119347 1.867162 0.734453 0
M  V30 32 H 3.674579 2.209139 0.329630 0
M  V30 33 H 5.959096 0.377875 -1.446520 0
M  V30 34 H -2.805609 0.650609 1.620988 0
M  V30 35 H -0.534417 -0.475182 3.383438 0
M  V30 36 H -1.895787 -1.409077 2.750651 0
M  V30 37 H -2.181676 -0.128245 3.933598 0
M  V30 38 H -0.253016 2.038775 2.647850 0
M  V30 39 H -1.515660 2.768927 1.643925 0
M  V30 40 H -1.877355 2.301919 3.305846 0
M  V30 41 H -1.110285 -2.385207 0.389758 0
M  V30 42 H -1.551110 -1.418757 -2.484333 0
M  V30 43 H -0.023977 -2.068793 -1.864198 0
M  V30 44 H -1.458009 -3.090693 -1.929521 0
M  V30 45 H -3.418650 -2.678980 -0.484077 0
M  V30 46 H -3.528052 -0.950031 -0.830944 0
M  V30 47 H -3.376124 -1.517395 0.836223 0
M  V30 END ATOM
M  V30 BEGIN BOND
M  V30 1 1 1 2
M  V30 2 1 2 3
M  V30 3 1 2 4
M  V30 4 1 4 5
M  V30 5 1 5 6
M  V30 6 1 6 7
M  V30 7 1 6 8
M  V30 8 1 8 9
M  V30 9 1 8 10
M  V30 10 2 10 11
M  V30 11 1 10 12
M  V30 12 1 4 13
M  V30 13 1 13 14
M  V30 14 1 13 15
M  V30 15 1 4 16
M  V30 16 1 16 17
M  V30 17 1 16 18
M  V30 18 1 1 19
M  V30 19 1 1 20
M  V30 20 1 1 21
M  V30 21 1 2 22
M  V30 22 1 3 23
M  V30 23 1 3 24
M  V30 24 1 3 25
M  V30 25 1 6 26 CFG=3
M  V30 26 1 7 27
M  V30 27 1 7 28
M  V30 28 1 7 29
M  V30 29 1 8 30 CFG=1
M  V30 30 1 9 31
M  V30 31 1 9 32
M  V30 32 1 12 33
M  V30 33 1 13 34
M  V30 34 1 14 35
M  V30 35 1 14 36
M  V30 36 1 14 37
M  V30 37 1 15 38
M  V30 38 1 15 39
M  V30 39 1 15 40
M  V30 40 1 16 41
M  V30 41 1 17 42
M  V30 42 1 17 43
M  V30 43 1 17 44
M  V30 44 1 18 45
M  V30 45 1 18 46
M  V30 46 1 18 47
M  V30 END BOND
M  V30 END CTAB
M  END
>  <catalyst_id>  (1) 
XABCSCQZQBCXSQ_NEPJUHHUSA_NONE

>  <source_smiles>  (1) 
CC(C)[Si](O[C@H](C)[C@H](N)C(=O)O)(C(C)C)C(C)C

>  <axial_configuration>  (1) 
none

>  <inchikey>  (1) 
XABCSCQZQBCXSQ-NEPJUHHUSA-N

>  <build_source>  (1) 
smiles

>  <rdkit_version>  (1) 
2025.09.6

>  <random_seed>  (1) 
42

>  <generated_at>  (1) 
2026-05-19T12:29:58

$$$$
