catalyst15
     RDKit          3D

  0  0  0  0  0  0  0  0  0  0999 V3000
M  V30 BEGIN CTAB
M  V30 COUNTS 18 18 0 0 0
M  V30 BEGIN ATOM
M  V30 1 O 1.708484 -0.361172 -2.187900 0
M  V30 2 C 1.588739 0.078360 -1.056308 0
M  V30 3 O 2.250052 1.203038 -0.694444 0
M  V30 4 C 0.775159 -0.529107 0.084871 0 CFG=1
M  V30 5 N 0.246083 0.508363 1.015616 0
M  V30 6 C -0.944576 1.060372 0.361842 0
M  V30 7 C -1.499540 -0.044352 -0.532831 0
M  V30 8 C -0.504321 -1.192374 -0.411007 0 CFG=2
M  V30 9 O -0.985146 -2.117091 0.574241 0
M  V30 10 H 2.747113 1.454598 -1.501803 0
M  V30 11 H 1.419531 -1.219674 0.638164 0
M  V30 12 H 0.958157 1.237577 1.120425 0
M  V30 13 H -1.676967 1.376866 1.110668 0
M  V30 14 H -0.681205 1.937859 -0.240061 0
M  V30 15 H -2.508631 -0.337744 -0.225081 0
M  V30 16 H -1.539333 0.314924 -1.567531 0
M  V30 17 H -0.393261 -1.735940 -1.353599 0
M  V30 18 H -0.960336 -1.634501 1.424132 0
M  V30 END ATOM
M  V30 BEGIN BOND
M  V30 1 2 1 2
M  V30 2 1 2 3
M  V30 3 1 2 4
M  V30 4 1 4 5
M  V30 5 1 5 6
M  V30 6 1 6 7
M  V30 7 1 7 8
M  V30 8 1 8 9
M  V30 9 1 8 4
M  V30 10 1 3 10
M  V30 11 1 4 11 CFG=1
M  V30 12 1 5 12
M  V30 13 1 6 13
M  V30 14 1 6 14
M  V30 15 1 7 15
M  V30 16 1 7 16
M  V30 17 1 8 17 CFG=3
M  V30 18 1 9 18
M  V30 END BOND
M  V30 END CTAB
M  END
>  <catalyst_id>  (1) 
BJBUEDPLEOHJGE_IMJSIDKUSA_NONE

>  <source_smiles>  (1) 
O=C(O)[C@H]1NCC[C@@H]1O

>  <axial_configuration>  (1) 
none

>  <inchikey>  (1) 
BJBUEDPLEOHJGE-IMJSIDKUSA-N

>  <build_source>  (1) 
smiles

>  <rdkit_version>  (1) 
2025.09.6

>  <random_seed>  (1) 
42

>  <generated_at>  (1) 
2026-05-19T12:29:44

$$$$
