catalyst374
     RDKit          3D

  0  0  0  0  0  0  0  0  0  0999 V3000
M  V30 BEGIN CTAB
M  V30 COUNTS 96 102 0 0 0
M  V30 BEGIN ATOM
M  V30 1 C -5.800907 -4.206001 0.649820 0
M  V30 2 C -5.333705 -3.999362 -0.588368 0
M  V30 3 C -3.889630 -3.889344 -1.031487 0 CFG=1
M  V30 4 C -3.681337 -2.679207 -1.986172 0
M  V30 5 N -2.472415 -1.888397 -1.639255 0
M  V30 6 C -1.300856 -2.794345 -1.654076 0
M  V30 7 C -1.434740 -3.918328 -0.617644 0
M  V30 8 C -2.806721 -3.816752 0.076943 0 CFG=1
M  V30 9 C -2.834746 -2.444344 0.777720 0
M  V30 10 C -2.685331 -1.313317 -0.268175 0 CFG=1
M  V30 11 C -1.577669 -0.270679 0.127579 0 CFG=1
M  V30 12 N -1.159063 0.508096 -1.048765 0
M  V30 13 C 0.034344 1.137797 -1.246599 0
M  V30 14 S 0.587848 1.248883 -2.812182 0
M  V30 15 N 0.651045 1.582132 -0.119533 0
M  V30 16 C 1.974322 2.214652 0.088943 0 CFG=2
M  V30 17 C 2.113589 3.537632 -0.657706 0
M  V30 18 C 1.156825 4.547584 -0.430377 0
M  V30 19 C 1.243123 5.784279 -1.072613 0
M  V30 20 C 2.289183 6.037700 -1.953396 0
M  V30 21 C 3.245017 5.054337 -2.191672 0
M  V30 22 C 3.159621 3.815402 -1.549152 0
M  V30 23 C 3.190953 1.205432 0.080591 0 CFG=2
M  V30 24 N 3.334051 0.490538 -1.195150 0
M  V30 25 S 4.807192 0.014104 -1.777614 0
M  V30 26 O 4.631414 -0.438293 -3.136666 0
M  V30 27 O 5.764777 1.053319 -1.464541 0
M  V30 28 C 5.210933 -1.406256 -0.807078 0
M  V30 29 C 6.181132 -1.284964 0.198244 0
M  V30 30 C 6.569540 -2.404599 0.939362 0
M  V30 31 C 6.009850 -3.654426 0.672685 0
M  V30 32 C 5.056691 -3.790103 -0.336185 0
M  V30 33 C 4.663747 -2.661347 -1.072101 0
M  V30 34 N 3.641952 -2.862177 -2.080977 0 CHG=1
M  V30 35 O 2.547407 -2.315806 -1.891914 0
M  V30 36 O 3.909638 -3.647928 -2.998740 0 CHG=-1
M  V30 37 C 3.088508 0.234329 1.257383 0
M  V30 38 C 3.799664 0.488701 2.440705 0
M  V30 39 C 3.719590 -0.392083 3.521107 0
M  V30 40 C 2.928641 -1.535984 3.434727 0
M  V30 41 C 2.211874 -1.799003 2.270552 0
M  V30 42 C 2.286592 -0.916340 1.192709 0
M  V30 43 C -1.994161 0.601281 1.309377 0
M  V30 44 C -1.375605 0.344456 2.543837 0
M  V30 45 C -1.710153 1.116551 3.635661 0
M  V30 46 N -2.607924 2.115927 3.590956 0
M  V30 47 C -3.214870 2.374541 2.422647 0
M  V30 48 C -4.140245 3.407553 2.397827 0
M  V30 49 C -4.827867 3.765545 1.234640 0
M  V30 50 C -4.585811 3.075916 0.056859 0
M  V30 51 O -5.179548 3.309125 -1.151135 0
M  V30 52 C -6.085378 4.402860 -1.224678 0
M  V30 53 C -3.656483 2.031972 0.063642 0
M  V30 54 C -2.952926 1.652593 1.235024 0
M  V30 55 H -6.870410 -4.278818 0.827728 0
M  V30 56 H -5.154195 -4.317592 1.512634 0
M  V30 57 H -6.068820 -3.928669 -1.391210 0
M  V30 58 H -3.696068 -4.801031 -1.615792 0
M  V30 59 H -4.554835 -2.013999 -1.998036 0
M  V30 60 H -3.586060 -3.042790 -3.017998 0
M  V30 61 H -1.185154 -3.224439 -2.657109 0
M  V30 62 H -0.376832 -2.232856 -1.478078 0
M  V30 63 H -0.630733 -3.840596 0.124452 0
M  V30 64 H -1.328610 -4.893825 -1.106811 0
M  V30 65 H -2.912644 -4.629096 0.803816 0
M  V30 66 H -2.028420 -2.413130 1.519903 0
M  V30 67 H -3.770974 -2.308169 1.329362 0
M  V30 68 H -3.639412 -0.771737 -0.307547 0
M  V30 69 H -0.679944 -0.832957 0.413641 0
M  V30 70 H -1.517961 0.102519 -1.913187 0
M  V30 71 H 0.016892 1.739588 0.648088 0
M  V30 72 H 1.919120 2.540815 1.140626 0
M  V30 73 H 0.323464 4.370422 0.247137 0
M  V30 74 H 0.488512 6.544613 -0.890348 0
M  V30 75 H 2.355649 6.995832 -2.461233 0
M  V30 76 H 4.058191 5.244754 -2.888009 0
M  V30 77 H 3.923892 3.079143 -1.780276 0
M  V30 78 H 4.097405 1.803317 0.240865 0
M  V30 79 H 2.536984 0.448332 -1.838128 0
M  V30 80 H 6.643734 -0.323018 0.413291 0
M  V30 81 H 7.317998 -2.301425 1.722729 0
M  V30 82 H 6.321192 -4.522805 1.249487 0
M  V30 83 H 4.626957 -4.768531 -0.542816 0
M  V30 84 H 4.428412 1.372986 2.529671 0
M  V30 85 H 4.279295 -0.187098 4.430635 0
M  V30 86 H 2.874185 -2.223268 4.275215 0
M  V30 87 H 1.597770 -2.692926 2.198419 0
M  V30 88 H 1.719969 -1.135561 0.289915 0
M  V30 89 H -0.635009 -0.441232 2.658539 0
M  V30 90 H -1.249755 0.948870 4.605251 0
M  V30 91 H -4.335322 3.955460 3.317524 0
M  V30 92 H -5.539120 4.582190 1.291221 0
M  V30 93 H -5.585864 5.347142 -0.983809 0
M  V30 94 H -6.445634 4.470007 -2.255739 0
M  V30 95 H -6.953792 4.238634 -0.578285 0
M  V30 96 H -3.485025 1.517090 -0.878652 0
M  V30 END ATOM
M  V30 BEGIN BOND
M  V30 1 2 1 2
M  V30 2 1 2 3
M  V30 3 1 3 4
M  V30 4 1 4 5
M  V30 5 1 5 6
M  V30 6 1 6 7
M  V30 7 1 7 8
M  V30 8 1 8 9
M  V30 9 1 9 10
M  V30 10 1 10 11
M  V30 11 1 11 12
M  V30 12 1 12 13
M  V30 13 2 13 14
M  V30 14 1 13 15
M  V30 15 1 15 16
M  V30 16 1 16 17
M  V30 17 2 17 18
M  V30 18 1 18 19
M  V30 19 2 19 20
M  V30 20 1 20 21
M  V30 21 2 21 22
M  V30 22 1 16 23
M  V30 23 1 23 24
M  V30 24 1 24 25
M  V30 25 2 25 26
M  V30 26 2 25 27
M  V30 27 1 25 28
M  V30 28 2 28 29
M  V30 29 1 29 30
M  V30 30 2 30 31
M  V30 31 1 31 32
M  V30 32 2 32 33
M  V30 33 1 33 34
M  V30 34 2 34 35
M  V30 35 1 34 36
M  V30 36 1 23 37
M  V30 37 2 37 38
M  V30 38 1 38 39
M  V30 39 2 39 40
M  V30 40 1 40 41
M  V30 41 2 41 42
M  V30 42 1 11 43
M  V30 43 2 43 44
M  V30 44 1 44 45
M  V30 45 2 45 46
M  V30 46 1 46 47
M  V30 47 2 47 48
M  V30 48 1 48 49
M  V30 49 2 49 50
M  V30 50 1 50 51
M  V30 51 1 51 52
M  V30 52 1 50 53
M  V30 53 2 53 54
M  V30 54 1 8 3
M  V30 55 1 22 17
M  V30 56 1 33 28
M  V30 57 1 42 37
M  V30 58 1 54 43
M  V30 59 1 10 5
M  V30 60 1 54 47
M  V30 61 1 1 55
M  V30 62 1 1 56
M  V30 63 1 2 57
M  V30 64 1 3 58 CFG=3
M  V30 65 1 4 59
M  V30 66 1 4 60
M  V30 67 1 6 61
M  V30 68 1 6 62
M  V30 69 1 7 63
M  V30 70 1 7 64
M  V30 71 1 8 65 CFG=1
M  V30 72 1 9 66
M  V30 73 1 9 67
M  V30 74 1 10 68 CFG=3
M  V30 75 1 11 69 CFG=1
M  V30 76 1 12 70
M  V30 77 1 15 71
M  V30 78 1 16 72 CFG=1
M  V30 79 1 18 73
M  V30 80 1 19 74
M  V30 81 1 20 75
M  V30 82 1 21 76
M  V30 83 1 22 77
M  V30 84 1 23 78 CFG=1
M  V30 85 1 24 79
M  V30 86 1 29 80
M  V30 87 1 30 81
M  V30 88 1 31 82
M  V30 89 1 32 83
M  V30 90 1 38 84
M  V30 91 1 39 85
M  V30 92 1 40 86
M  V30 93 1 41 87
M  V30 94 1 42 88
M  V30 95 1 44 89
M  V30 96 1 45 90
M  V30 97 1 48 91
M  V30 98 1 49 92
M  V30 99 1 52 93
M  V30 100 1 52 94
M  V30 101 1 52 95
M  V30 102 1 53 96
M  V30 END BOND
M  V30 END CTAB
M  END
>  <catalyst_id>  (1) 
VXOWJJDCWAOWIY_YPCRQTKHSA_NONE

>  <source_smiles>  (1) 
C=C[C@H]1CN2CC[C@H]1C[C@H]2[C@@H](NC(=S)N[C@H](c1ccccc1)[C@H](NS(=O)(=O)c1ccccc1[N+](=O)[O-])c1ccccc1)c1ccnc2ccc(OC)cc12

>  <axial_configuration>  (1) 
none

>  <inchikey>  (1) 
VXOWJJDCWAOWIY-YPCRQTKHSA-N

>  <build_source>  (1) 
smiles

>  <rdkit_version>  (1) 
2025.09.6

>  <random_seed>  (1) 
42

>  <generated_at>  (1) 
2026-05-19T12:36:50

$$$$
