catalyst83
     RDKit          3D

  0  0  0  0  0  0  0  0  0  0999 V3000
M  V30 BEGIN CTAB
M  V30 COUNTS 39 41 0 0 0
M  V30 BEGIN ATOM
M  V30 1 C -3.949002 2.224759 1.177783 0
M  V30 2 O -3.276404 0.976682 1.283776 0
M  V30 3 C -3.336050 0.236810 0.058087 0 CFG=1
M  V30 4 O -2.491080 0.825904 -0.943823 0
M  V30 5 C -1.115362 0.800684 -0.566047 0 CFG=2
M  V30 6 C -0.238041 1.462907 -1.622864 0
M  V30 7 O 1.135820 1.367492 -1.250590 0
M  V30 8 C 1.536501 0.007607 -1.065540 0 CFG=1
M  V30 9 C 2.984756 -0.033065 -0.633338 0
M  V30 10 C 3.465776 0.829676 0.364985 0
M  V30 11 C 4.798891 0.773956 0.775137 0
M  V30 12 C 5.667235 -0.150141 0.198252 0
M  V30 13 C 5.203272 -1.020678 -0.785987 0
M  V30 14 C 3.869665 -0.965775 -1.197507 0
M  V30 15 O 0.768979 -0.640862 -0.045915 0
M  V30 16 C -0.616862 -0.630956 -0.392769 0 CFG=1
M  V30 17 C -1.438216 -1.314046 0.701213 0 CFG=2
M  V30 18 O -1.029058 -2.686153 0.825581 0
M  V30 19 C -2.935123 -1.242487 0.329154 0 CFG=1
M  V30 20 N -3.766252 -1.896669 1.367595 0
M  V30 21 H -3.490896 2.850148 0.405823 0
M  V30 22 H -5.010450 2.071871 0.960301 0
M  V30 23 H -3.863327 2.741493 2.137499 0
M  V30 24 H -4.364048 0.250719 -0.325262 0
M  V30 25 H -0.969507 1.359331 0.368747 0
M  V30 26 H -0.497367 2.522777 -1.718289 0
M  V30 27 H -0.389146 1.015606 -2.613218 0
M  V30 28 H 1.422982 -0.530120 -2.016753 0
M  V30 29 H 2.794010 1.551780 0.824939 0
M  V30 30 H 5.157312 1.451162 1.545775 0
M  V30 31 H 6.704853 -0.193777 0.518289 0
M  V30 32 H 5.880070 -1.744985 -1.231764 0
M  V30 33 H 3.525559 -1.659210 -1.961378 0
M  V30 34 H -0.740299 -1.206894 -1.321249 0
M  V30 35 H -1.247970 -0.843779 1.674246 0
M  V30 36 H -0.059314 -2.657620 0.945663 0
M  V30 37 H -3.078402 -1.815537 -0.596241 0
M  V30 38 H -3.722424 -1.318400 2.209842 0
M  V30 39 H -3.291081 -2.770213 1.615849 0
M  V30 END ATOM
M  V30 BEGIN BOND
M  V30 1 1 1 2
M  V30 2 1 2 3
M  V30 3 1 3 4
M  V30 4 1 4 5
M  V30 5 1 5 6
M  V30 6 1 6 7
M  V30 7 1 7 8
M  V30 8 1 8 9
M  V30 9 2 9 10
M  V30 10 1 10 11
M  V30 11 2 11 12
M  V30 12 1 12 13
M  V30 13 2 13 14
M  V30 14 1 8 15
M  V30 15 1 15 16
M  V30 16 1 16 17
M  V30 17 1 17 18
M  V30 18 1 17 19
M  V30 19 1 19 20
M  V30 20 1 19 3
M  V30 21 1 16 5
M  V30 22 1 14 9
M  V30 23 1 1 21
M  V30 24 1 1 22
M  V30 25 1 1 23
M  V30 26 1 3 24 CFG=3
M  V30 27 1 5 25 CFG=1
M  V30 28 1 6 26
M  V30 29 1 6 27
M  V30 30 1 8 28 CFG=3
M  V30 31 1 10 29
M  V30 32 1 11 30
M  V30 33 1 12 31
M  V30 34 1 13 32
M  V30 35 1 14 33
M  V30 36 1 16 34 CFG=3
M  V30 37 1 17 35 CFG=1
M  V30 38 1 18 36
M  V30 39 1 19 37 CFG=3
M  V30 40 1 20 38
M  V30 41 1 20 39
M  V30 END BOND
M  V30 END CTAB
M  END
>  <catalyst_id>  (1) 
GQJOKDVZCWTBHR_UQPQVDFHSA_NONE

>  <source_smiles>  (1) 
CO[C@H]1O[C@@H]2CO[C@@H](c3ccccc3)O[C@H]2[C@H](O)[C@H]1N

>  <axial_configuration>  (1) 
none

>  <inchikey>  (1) 
GQJOKDVZCWTBHR-UQPQVDFHSA-N

>  <build_source>  (1) 
smiles

>  <rdkit_version>  (1) 
2025.09.6

>  <random_seed>  (1) 
42

>  <generated_at>  (1) 
2026-05-19T12:34:52

$$$$
