catalyst237
     RDKit          3D

  0  0  0  0  0  0  0  0  0  0999 V3000
M  V30 BEGIN CTAB
M  V30 COUNTS 75 80 0 0 0
M  V30 BEGIN ATOM
M  V30 1 C -4.249856 1.129104 2.876055 0
M  V30 2 C -3.367255 1.748505 1.803297 0
M  V30 3 C -3.953133 1.643276 0.383047 0 CFG=1
M  V30 4 C -3.011407 2.325147 -0.640595 0
M  V30 5 N -2.810972 1.496571 -1.853006 0
M  V30 6 C -4.142053 1.175872 -2.419718 0
M  V30 7 C -4.970306 0.311896 -1.457309 0
M  V30 8 C -4.239902 0.202564 -0.105970 0 CFG=1
M  V30 9 C -2.905299 -0.518052 -0.358690 0
M  V30 10 C -2.129793 0.206611 -1.484482 0 CFG=2
M  V30 11 C -0.590637 0.385329 -1.155813 0 CFG=2
M  V30 12 N -0.015420 1.377789 -2.103767 0
M  V30 13 C 0.739520 2.383445 -1.688557 0
M  V30 14 C 1.691075 2.690831 -0.744028 0
M  V30 15 N 2.389774 2.142460 0.230146 0
M  V30 16 C 3.121536 0.928895 0.182517 0
M  V30 17 C 3.551835 0.363451 1.391334 0
M  V30 18 C 4.265321 -0.845499 1.422629 0
M  V30 19 C 4.718779 -1.437799 2.734630 0
M  V30 20 F 4.599079 -2.793061 2.779183 0
M  V30 21 F 4.028137 -0.962950 3.808683 0
M  V30 22 F 6.029512 -1.169553 2.988996 0
M  V30 23 C 4.575880 -1.479214 0.210932 0
M  V30 24 C 4.151191 -0.939559 -1.012704 0
M  V30 25 C 4.532118 -1.602300 -2.315460 0
M  V30 26 F 4.629854 -2.956750 -2.226196 0
M  V30 27 F 5.749832 -1.175106 -2.756502 0
M  V30 28 F 3.665425 -1.348795 -3.335257 0
M  V30 29 C 3.413004 0.256776 -1.010287 0
M  V30 30 C 1.684578 4.122534 -1.128031 0
M  V30 31 O 2.184415 5.154949 -0.757180 0
M  V30 32 C 0.752439 3.772821 -2.222032 0
M  V30 33 O 0.238810 4.416348 -3.102706 0
M  V30 34 C 0.138237 -0.949693 -1.268739 0
M  V30 35 C 0.387536 -1.465633 -2.551258 0
M  V30 36 C 0.988901 -2.698855 -2.675622 0
M  V30 37 N 1.358509 -3.453100 -1.626063 0
M  V30 38 C 1.132972 -2.980220 -0.393018 0
M  V30 39 C 1.528172 -3.775698 0.669851 0
M  V30 40 C 1.353693 -3.374838 1.993916 0
M  V30 41 C 0.773508 -2.147316 2.278929 0
M  V30 42 O 0.672417 -1.856379 3.609214 0
M  V30 43 C 0.116973 -0.596256 3.962174 0
M  V30 44 C 0.362988 -1.333714 1.221893 0
M  V30 45 C 0.527203 -1.726122 -0.136017 0
M  V30 46 H -4.298927 0.041067 2.775602 0
M  V30 47 H -3.842997 1.348901 3.868474 0
M  V30 48 H -5.266917 1.530640 2.830425 0
M  V30 49 H -3.228790 2.810178 2.044597 0
M  V30 50 H -2.372247 1.291940 1.851959 0
M  V30 51 H -4.906708 2.190655 0.384075 0
M  V30 52 H -3.438465 3.292793 -0.935032 0
M  V30 53 H -2.041828 2.572357 -0.193564 0
M  V30 54 H -4.023833 0.658372 -3.379730 0
M  V30 55 H -4.679165 2.104052 -2.652622 0
M  V30 56 H -5.962450 0.756981 -1.317504 0
M  V30 57 H -5.120195 -0.687691 -1.882935 0
M  V30 58 H -4.856680 -0.357229 0.603058 0
M  V30 59 H -2.333608 -0.564512 0.571117 0
M  V30 60 H -3.098144 -1.554846 -0.661592 0
M  V30 61 H -2.185355 -0.424213 -2.383902 0
M  V30 62 H -0.502685 0.803098 -0.149603 0
M  V30 63 H -0.758086 1.627223 -2.773545 0
M  V30 64 H 2.857480 2.770361 0.890737 0
M  V30 65 H 3.312456 0.860749 2.330757 0
M  V30 66 H 5.145652 -2.410067 0.219314 0
M  V30 67 H 3.086508 0.668063 -1.963998 0
M  V30 68 H 0.120626 -0.910299 -3.445584 0
M  V30 69 H 1.203288 -3.123055 -3.652514 0
M  V30 70 H 1.991746 -4.738035 0.463289 0
M  V30 71 H 1.683251 -4.024384 2.801306 0
M  V30 72 H -0.921477 -0.514324 3.624251 0
M  V30 73 H 0.725860 0.226321 3.572554 0
M  V30 74 H 0.118763 -0.523608 5.053936 0
M  V30 75 H -0.074263 -0.370199 1.447810 0
M  V30 END ATOM
M  V30 BEGIN BOND
M  V30 1 1 1 2
M  V30 2 1 2 3
M  V30 3 1 3 4
M  V30 4 1 4 5
M  V30 5 1 5 6
M  V30 6 1 6 7
M  V30 7 1 7 8
M  V30 8 1 8 9
M  V30 9 1 9 10
M  V30 10 1 10 11
M  V30 11 1 11 12
M  V30 12 1 12 13
M  V30 13 2 13 14
M  V30 14 1 14 15
M  V30 15 1 15 16
M  V30 16 2 16 17
M  V30 17 1 17 18
M  V30 18 1 18 19
M  V30 19 1 19 20
M  V30 20 1 19 21
M  V30 21 1 19 22
M  V30 22 2 18 23
M  V30 23 1 23 24
M  V30 24 1 24 25
M  V30 25 1 25 26
M  V30 26 1 25 27
M  V30 27 1 25 28
M  V30 28 2 24 29
M  V30 29 1 14 30
M  V30 30 2 30 31
M  V30 31 1 30 32
M  V30 32 2 32 33
M  V30 33 1 11 34
M  V30 34 2 34 35
M  V30 35 1 35 36
M  V30 36 2 36 37
M  V30 37 1 37 38
M  V30 38 2 38 39
M  V30 39 1 39 40
M  V30 40 2 40 41
M  V30 41 1 41 42
M  V30 42 1 42 43
M  V30 43 1 41 44
M  V30 44 2 44 45
M  V30 45 1 8 3
M  V30 46 1 32 13
M  V30 47 1 45 34
M  V30 48 1 10 5
M  V30 49 1 29 16
M  V30 50 1 45 38
M  V30 51 1 1 46
M  V30 52 1 1 47
M  V30 53 1 1 48
M  V30 54 1 2 49
M  V30 55 1 2 50
M  V30 56 1 3 51 CFG=1
M  V30 57 1 4 52
M  V30 58 1 4 53
M  V30 59 1 6 54
M  V30 60 1 6 55
M  V30 61 1 7 56
M  V30 62 1 7 57
M  V30 63 1 8 58 CFG=1
M  V30 64 1 9 59
M  V30 65 1 9 60
M  V30 66 1 10 61 CFG=3
M  V30 67 1 11 62 CFG=1
M  V30 68 1 12 63
M  V30 69 1 15 64
M  V30 70 1 17 65
M  V30 71 1 23 66
M  V30 72 1 29 67
M  V30 73 1 35 68
M  V30 74 1 36 69
M  V30 75 1 39 70
M  V30 76 1 40 71
M  V30 77 1 43 72
M  V30 78 1 43 73
M  V30 79 1 43 74
M  V30 80 1 44 75
M  V30 END BOND
M  V30 END CTAB
M  END
>  <catalyst_id>  (1) 
OFXKFCTYZMFMJB_ZRJNXXGPSA_NONE

>  <source_smiles>  (1) 
CC[C@H]1CN2CC[C@H]1C[C@@H]2[C@H](Nc1c(Nc2cc(C(F)(F)F)cc(C(F)(F)F)c2)c(=O)c1=O)c1ccnc2ccc(OC)cc12

>  <axial_configuration>  (1) 
none

>  <inchikey>  (1) 
OFXKFCTYZMFMJB-ZRJNXXGPSA-N

>  <build_source>  (1) 
smiles

>  <rdkit_version>  (1) 
2025.09.6

>  <random_seed>  (1) 
42

>  <generated_at>  (1) 
2026-05-19T12:39:47

$$$$
