catalyst322
     RDKit          3D

  0  0  0  0  0  0  0  0  0  0999 V3000
M  V30 BEGIN CTAB
M  V30 COUNTS 84 88 0 0 0
M  V30 BEGIN ATOM
M  V30 1 C -4.619102 -2.167784 3.650782 0
M  V30 2 C -4.120791 -2.471118 2.245574 0
M  V30 3 C -2.600062 -2.700844 2.169404 0 CFG=1
M  V30 4 C -2.164665 -3.054269 0.723014 0
M  V30 5 N -1.163836 -2.095148 0.191778 0
M  V30 6 C 0.047454 -2.179048 1.043038 0
M  V30 7 C -0.267543 -1.919722 2.522222 0
M  V30 8 C -1.743121 -1.509161 2.663647 0 CFG=1
M  V30 9 C -1.942913 -0.287135 1.752129 0
M  V30 10 C -1.766072 -0.715253 0.276369 0 CFG=1
M  V30 11 C -0.970923 0.349327 -0.575787 0 CFG=1
M  V30 12 N -0.736169 -0.205074 -1.931049 0
M  V30 13 C 0.486020 0.301296 -2.534639 0 CFG=1
M  V30 14 N 1.503646 -0.621628 -2.118384 0
M  V30 15 C 2.571998 -0.281238 -1.352693 0
M  V30 16 O 2.811500 0.833322 -0.914358 0
M  V30 17 O 3.317419 -1.390306 -1.138922 0
M  V30 18 C 4.455758 -1.217316 -0.288009 0
M  V30 19 C 4.082430 -1.555833 1.132332 0
M  V30 20 C 3.872330 -2.888546 1.513619 0
M  V30 21 C 3.513623 -3.200750 2.825740 0
M  V30 22 C 3.356152 -2.184567 3.766429 0
M  V30 23 C 3.551308 -0.855398 3.395266 0
M  V30 24 C 3.909633 -0.541725 2.083564 0
M  V30 25 C 0.376211 0.394069 -4.092652 0
M  V30 26 C 0.058821 -0.964027 -4.750992 0
M  V30 27 C 1.705410 0.920999 -4.673850 0
M  V30 28 C -0.737247 1.392192 -4.477561 0
M  V30 29 C -1.704083 1.687280 -0.663185 0
M  V30 30 C -2.963782 1.713041 -1.283233 0
M  V30 31 C -3.663911 2.898631 -1.338069 0
M  V30 32 N -3.210232 4.054632 -0.823432 0
M  V30 33 C -1.996583 4.058991 -0.252897 0
M  V30 34 C -1.542161 5.265562 0.254860 0
M  V30 35 C -0.287078 5.388788 0.850452 0
M  V30 36 C 0.552887 4.287926 0.934414 0
M  V30 37 O 1.765534 4.528943 1.517516 0
M  V30 38 C 2.771302 3.541266 1.318966 0
M  V30 39 C 0.106427 3.057242 0.448997 0
M  V30 40 C -1.175753 2.908218 -0.148943 0
M  V30 41 H -5.713271 -2.131402 3.660668 0
M  V30 42 H -4.299856 -2.940389 4.357205 0
M  V30 43 H -4.254463 -1.199405 4.005333 0
M  V30 44 H -4.429472 -1.662866 1.573195 0
M  V30 45 H -4.629155 -3.376834 1.891114 0
M  V30 46 H -2.369602 -3.566460 2.806679 0
M  V30 47 H -3.024531 -3.093108 0.042437 0
M  V30 48 H -1.739732 -4.066496 0.703672 0
M  V30 49 H 0.504596 -3.170067 0.929893 0
M  V30 50 H 0.808173 -1.473722 0.695576 0
M  V30 51 H -0.066750 -2.819622 3.115642 0
M  V30 52 H 0.381879 -1.125273 2.907698 0
M  V30 53 H -1.957227 -1.258512 3.707107 0
M  V30 54 H -2.940933 0.141402 1.898456 0
M  V30 55 H -1.221383 0.490091 2.031877 0
M  V30 56 H -2.767831 -0.792912 -0.169476 0
M  V30 57 H -0.009176 0.464115 -0.073377 0
M  V30 58 H -0.643617 -1.215154 -1.803746 0
M  V30 59 H 0.726560 1.305461 -2.163584 0
M  V30 60 H 1.428008 -1.596637 -2.361540 0
M  V30 61 H 5.232890 -1.909462 -0.632874 0
M  V30 62 H 4.889606 -0.213132 -0.370946 0
M  V30 63 H 3.985649 -3.689780 0.786378 0
M  V30 64 H 3.356716 -4.236969 3.114009 0
M  V30 65 H 3.077750 -2.427879 4.788537 0
M  V30 66 H 3.422693 -0.062202 4.127398 0
M  V30 67 H 4.051727 0.500119 1.804397 0
M  V30 68 H -0.024061 -0.860313 -5.839297 0
M  V30 69 H 0.843976 -1.701962 -4.556103 0
M  V30 70 H -0.889666 -1.376967 -4.391482 0
M  V30 71 H 1.634647 1.061998 -5.758527 0
M  V30 72 H 1.974495 1.886566 -4.231006 0
M  V30 73 H 2.530823 0.224902 -4.489551 0
M  V30 74 H -0.568358 2.370485 -4.013531 0
M  V30 75 H -0.775211 1.542657 -5.562655 0
M  V30 76 H -1.724984 1.036714 -4.165604 0
M  V30 77 H -3.389118 0.819607 -1.730295 0
M  V30 78 H -4.639913 2.951861 -1.811184 0
M  V30 79 H -2.182173 6.141701 0.179756 0
M  V30 80 H 0.037233 6.353024 1.232546 0
M  V30 81 H 2.533336 2.625640 1.869308 0
M  V30 82 H 2.925379 3.339234 0.254111 0
M  V30 83 H 3.709461 3.935089 1.721685 0
M  V30 84 H 0.765053 2.201021 0.525387 0
M  V30 END ATOM
M  V30 BEGIN BOND
M  V30 1 1 1 2
M  V30 2 1 2 3
M  V30 3 1 3 4
M  V30 4 1 4 5
M  V30 5 1 5 6
M  V30 6 1 6 7
M  V30 7 1 7 8
M  V30 8 1 8 9
M  V30 9 1 9 10
M  V30 10 1 10 11
M  V30 11 1 11 12
M  V30 12 1 12 13
M  V30 13 1 13 14
M  V30 14 1 14 15
M  V30 15 2 15 16
M  V30 16 1 15 17
M  V30 17 1 17 18
M  V30 18 1 18 19
M  V30 19 2 19 20
M  V30 20 1 20 21
M  V30 21 2 21 22
M  V30 22 1 22 23
M  V30 23 2 23 24
M  V30 24 1 13 25
M  V30 25 1 25 26
M  V30 26 1 25 27
M  V30 27 1 25 28
M  V30 28 1 11 29
M  V30 29 2 29 30
M  V30 30 1 30 31
M  V30 31 2 31 32
M  V30 32 1 32 33
M  V30 33 2 33 34
M  V30 34 1 34 35
M  V30 35 2 35 36
M  V30 36 1 36 37
M  V30 37 1 37 38
M  V30 38 1 36 39
M  V30 39 2 39 40
M  V30 40 1 8 3
M  V30 41 1 24 19
M  V30 42 1 40 29
M  V30 43 1 10 5
M  V30 44 1 40 33
M  V30 45 1 1 41
M  V30 46 1 1 42
M  V30 47 1 1 43
M  V30 48 1 2 44
M  V30 49 1 2 45
M  V30 50 1 3 46 CFG=1
M  V30 51 1 4 47
M  V30 52 1 4 48
M  V30 53 1 6 49
M  V30 54 1 6 50
M  V30 55 1 7 51
M  V30 56 1 7 52
M  V30 57 1 8 53 CFG=1
M  V30 58 1 9 54
M  V30 59 1 9 55
M  V30 60 1 10 56 CFG=3
M  V30 61 1 11 57 CFG=1
M  V30 62 1 12 58
M  V30 63 1 13 59 CFG=1
M  V30 64 1 14 60
M  V30 65 1 18 61
M  V30 66 1 18 62
M  V30 67 1 20 63
M  V30 68 1 21 64
M  V30 69 1 22 65
M  V30 70 1 23 66
M  V30 71 1 24 67
M  V30 72 1 26 68
M  V30 73 1 26 69
M  V30 74 1 26 70
M  V30 75 1 27 71
M  V30 76 1 27 72
M  V30 77 1 27 73
M  V30 78 1 28 74
M  V30 79 1 28 75
M  V30 80 1 28 76
M  V30 81 1 30 77
M  V30 82 1 31 78
M  V30 83 1 34 79
M  V30 84 1 35 80
M  V30 85 1 38 81
M  V30 86 1 38 82
M  V30 87 1 38 83
M  V30 88 1 39 84
M  V30 END BOND
M  V30 END CTAB
M  END
>  <catalyst_id>  (1) 
SDIGLRCWOUDJRY_RMRAHUOJSA_NONE

>  <source_smiles>  (1) 
CC[C@H]1CN2CC[C@H]1C[C@H]2[C@@H](N[C@@H](NC(=O)OCc1ccccc1)C(C)(C)C)c1ccnc2ccc(OC)cc12

>  <axial_configuration>  (1) 
none

>  <inchikey>  (1) 
SDIGLRCWOUDJRY-RMRAHUOJSA-N

>  <build_source>  (1) 
smiles

>  <rdkit_version>  (1) 
2025.09.6

>  <random_seed>  (1) 
42

>  <generated_at>  (1) 
2026-05-19T12:36:40

$$$$
