catalyst69
     RDKit          3D

  0  0  0  0  0  0  0  0  0  0999 V3000
M  V30 BEGIN CTAB
M  V30 COUNTS 103 109 0 0 0
M  V30 BEGIN ATOM
M  V30 1 C -6.729890 4.687840 -2.190691 0
M  V30 2 C -7.183323 3.504112 -1.391649 0
M  V30 3 O -8.148177 3.500658 -0.642345 0
M  V30 4 O -6.369200 2.441762 -1.623450 0
M  V30 5 C -6.682344 1.274659 -0.841256 0
M  V30 6 C -5.636718 0.190794 -1.139775 0 CFG=1
M  V30 7 O -4.363387 0.656320 -0.671102 0
M  V30 8 C -3.314210 -0.238524 -1.019403 0 CFG=1
M  V30 9 N -2.087784 0.441838 -0.660163 0
M  V30 10 C -1.253534 1.135125 -1.478214 0
M  V30 11 S -1.352739 1.223169 -3.142788 0
M  V30 12 N -0.226223 1.787556 -0.877129 0
M  V30 13 C 0.135567 1.902201 0.540480 0 CFG=2
M  V30 14 C -0.822869 2.847796 1.281031 0
M  V30 15 C -0.454145 2.961915 2.757477 0
M  V30 16 C 0.995011 3.395558 2.948251 0
M  V30 17 C 1.970966 2.498091 2.186799 0
M  V30 18 C 1.608758 2.415380 0.692667 0 CFG=1
M  V30 19 N 2.549117 1.651355 -0.156748 0
M  V30 20 C 3.806817 2.359712 -0.470691 0
M  V30 21 C 5.002288 1.994015 0.392253 0
M  V30 22 C 5.530727 2.939770 1.278131 0
M  V30 23 C 6.558433 2.591191 2.149653 0
M  V30 24 C 7.058956 1.285157 2.183986 0
M  V30 25 C 8.052655 0.945275 3.117046 0
M  V30 26 C 8.544141 -0.356298 3.202681 0
M  V30 27 C 8.042045 -1.336996 2.360301 0
M  V30 28 C 7.059344 -1.009983 1.422685 0
M  V30 29 C 6.552976 0.306853 1.288532 0
M  V30 30 C 5.558791 0.687039 0.330599 0
M  V30 31 C 5.030032 -0.258882 -0.701760 0
M  V30 32 C 3.633089 -0.516964 -0.722455 0
M  V30 33 C 3.091806 -1.403935 -1.657993 0
M  V30 34 C 3.915002 -2.035767 -2.582579 0
M  V30 35 C 5.285816 -1.756538 -2.634329 0
M  V30 36 C 6.081717 -2.368569 -3.617872 0
M  V30 37 C 7.437877 -2.071480 -3.732969 0
M  V30 38 C 8.012574 -1.146852 -2.873115 0
M  V30 39 C 7.234289 -0.538693 -1.886480 0
M  V30 40 C 5.859993 -0.841058 -1.715045 0
M  V30 41 C 2.710036 0.236789 0.219874 0
M  V30 42 C -3.504646 -1.556536 -0.247633 0 CFG=2
M  V30 43 O -2.470527 -2.508804 -0.590000 0
M  V30 44 C -1.339173 -2.445081 0.167307 0
M  V30 45 C -0.345649 -3.461491 -0.307971 0
M  V30 46 O -1.148189 -1.671224 1.096962 0
M  V30 47 C -4.864645 -2.165593 -0.633474 0 CFG=1
M  V30 48 O -5.070602 -3.304427 0.242568 0
M  V30 49 C -5.696824 -4.387125 -0.289181 0
M  V30 50 C -5.817361 -5.468711 0.739131 0
M  V30 51 O -6.110696 -4.474437 -1.437043 0
M  V30 52 C -6.006668 -1.139059 -0.457799 0 CFG=2
M  V30 53 O -7.218966 -1.616005 -1.085089 0
M  V30 54 C -8.102229 -2.289101 -0.299222 0
M  V30 55 C -9.293346 -2.704882 -1.105625 0
M  V30 56 O -7.951049 -2.528379 0.890160 0
M  V30 57 H -6.803798 4.470032 -3.259091 0
M  V30 58 H -5.702441 4.945224 -1.919625 0
M  V30 59 H -7.372722 5.543503 -1.965704 0
M  V30 60 H -6.649184 1.541261 0.221581 0
M  V30 61 H -7.686317 0.932062 -1.110889 0
M  V30 62 H -5.584365 0.066790 -2.230251 0
M  V30 63 H -3.324011 -0.432717 -2.095866 0
M  V30 64 H -1.907330 0.486678 0.330814 0
M  V30 65 H 0.443398 2.188304 -1.527953 0
M  V30 66 H 0.048283 0.903906 0.985973 0
M  V30 67 H -0.797182 3.842083 0.816719 0
M  V30 68 H -1.859051 2.501167 1.198630 0
M  V30 69 H -1.120510 3.680448 3.248035 0
M  V30 70 H -0.613074 1.993197 3.247156 0
M  V30 71 H 1.112584 4.431654 2.604940 0
M  V30 72 H 1.244007 3.384327 4.014412 0
M  V30 73 H 2.976418 2.902801 2.321436 0
M  V30 74 H 1.959658 1.501664 2.643153 0
M  V30 75 H 1.600745 3.442124 0.299389 0
M  V30 76 H 3.651964 3.447538 -0.451737 0
M  V30 77 H 4.066711 2.162697 -1.519830 0
M  V30 78 H 5.127335 3.949337 1.309469 0
M  V30 79 H 6.942777 3.346229 2.832080 0
M  V30 80 H 8.448690 1.695016 3.798548 0
M  V30 81 H 9.308902 -0.603326 3.933574 0
M  V30 82 H 8.408601 -2.358670 2.427880 0
M  V30 83 H 6.682116 -1.812393 0.792426 0
M  V30 84 H 2.022041 -1.588586 -1.685577 0
M  V30 85 H 3.462285 -2.718413 -3.300488 0
M  V30 86 H 5.643460 -3.078450 -4.316672 0
M  V30 87 H 8.036345 -2.549825 -4.503314 0
M  V30 88 H 9.064372 -0.892950 -2.966124 0
M  V30 89 H 7.720067 0.196477 -1.247097 0
M  V30 90 H 3.076794 0.117750 1.245892 0
M  V30 91 H 1.734975 -0.265610 0.202589 0
M  V30 92 H -3.509375 -1.379938 0.837667 0
M  V30 93 H -0.795031 -4.457362 -0.281878 0
M  V30 94 H -0.020130 -3.213705 -1.322138 0
M  V30 95 H 0.525874 -3.455999 0.354178 0
M  V30 96 H -4.818623 -2.512231 -1.674874 0
M  V30 97 H -6.381377 -5.102590 1.600930 0
M  V30 98 H -6.353621 -6.317993 0.306128 0
M  V30 99 H -4.822801 -5.801911 1.044553 0
M  V30 100 H -6.168586 -0.960590 0.614314 0
M  V30 101 H -9.783463 -1.820702 -1.521824 0
M  V30 102 H -8.982608 -3.385229 -1.902135 0
M  V30 103 H -10.006512 -3.223615 -0.461484 0
M  V30 END ATOM
M  V30 BEGIN BOND
M  V30 1 1 1 2
M  V30 2 2 2 3
M  V30 3 1 2 4
M  V30 4 1 4 5
M  V30 5 1 5 6
M  V30 6 1 6 7
M  V30 7 1 7 8
M  V30 8 1 8 9
M  V30 9 1 9 10
M  V30 10 2 10 11
M  V30 11 1 10 12
M  V30 12 1 12 13
M  V30 13 1 13 14
M  V30 14 1 14 15
M  V30 15 1 15 16
M  V30 16 1 16 17
M  V30 17 1 17 18
M  V30 18 1 18 19
M  V30 19 1 19 20
M  V30 20 1 20 21
M  V30 21 2 21 22
M  V30 22 1 22 23
M  V30 23 2 23 24
M  V30 24 1 24 25
M  V30 25 2 25 26
M  V30 26 1 26 27
M  V30 27 2 27 28
M  V30 28 1 28 29
M  V30 29 2 29 30
M  V30 30 1 30 31
M  V30 31 2 31 32
M  V30 32 1 32 33
M  V30 33 2 33 34
M  V30 34 1 34 35
M  V30 35 2 35 36
M  V30 36 1 36 37
M  V30 37 2 37 38
M  V30 38 1 38 39
M  V30 39 2 39 40
M  V30 40 1 32 41
M  V30 41 1 8 42
M  V30 42 1 42 43
M  V30 43 1 43 44
M  V30 44 1 44 45
M  V30 45 2 44 46
M  V30 46 1 42 47
M  V30 47 1 47 48
M  V30 48 1 48 49
M  V30 49 1 49 50
M  V30 50 2 49 51
M  V30 51 1 47 52
M  V30 52 1 52 53
M  V30 53 1 53 54
M  V30 54 1 54 55
M  V30 55 2 54 56
M  V30 56 1 52 6
M  V30 57 1 18 13
M  V30 58 1 41 19
M  V30 59 1 30 21
M  V30 60 1 40 31
M  V30 61 1 29 24
M  V30 62 1 40 35
M  V30 63 1 1 57
M  V30 64 1 1 58
M  V30 65 1 1 59
M  V30 66 1 5 60
M  V30 67 1 5 61
M  V30 68 1 6 62 CFG=3
M  V30 69 1 8 63 CFG=3
M  V30 70 1 9 64
M  V30 71 1 12 65
M  V30 72 1 13 66 CFG=1
M  V30 73 1 14 67
M  V30 74 1 14 68
M  V30 75 1 15 69
M  V30 76 1 15 70
M  V30 77 1 16 71
M  V30 78 1 16 72
M  V30 79 1 17 73
M  V30 80 1 17 74
M  V30 81 1 18 75 CFG=3
M  V30 82 1 20 76
M  V30 83 1 20 77
M  V30 84 1 22 78
M  V30 85 1 23 79
M  V30 86 1 25 80
M  V30 87 1 26 81
M  V30 88 1 27 82
M  V30 89 1 28 83
M  V30 90 1 33 84
M  V30 91 1 34 85
M  V30 92 1 36 86
M  V30 93 1 37 87
M  V30 94 1 38 88
M  V30 95 1 39 89
M  V30 96 1 41 90
M  V30 97 1 41 91
M  V30 98 1 42 92 CFG=1
M  V30 99 1 45 93
M  V30 100 1 45 94
M  V30 101 1 45 95
M  V30 102 1 47 96 CFG=3
M  V30 103 1 50 97
M  V30 104 1 50 98
M  V30 105 1 50 99
M  V30 106 1 52 100 CFG=1
M  V30 107 1 55 101
M  V30 108 1 55 102
M  V30 109 1 55 103
M  V30 END BOND
M  V30 END CTAB
M  END
>  <catalyst_id>  (1) 
GACABSBYFIMBBQ_DSOGEFQVSA_R

>  <source_smiles>  (1) 
CC(=O)OC[C@H]1O[C@@H](NC(=S)N[C@@H]2CCCC[C@H]2N2Cc3ccc4ccccc4c3-c3c(ccc4ccccc34)C2)[C@H](OC(C)=O)[C@@H](OC(C)=O)[C@@H]1OC(C)=O

>  <axial_configuration>  (1) 
R

>  <inchikey>  (1) 
GACABSBYFIMBBQ-DSOGEFQVSA-N

>  <build_source>  (1) 
smiles+axial_bridged

>  <final_biaryl_angle_deg>  (1) 
121.65

>  <n_valid_conformers>  (1) 
10

>  <rdkit_version>  (1) 
2025.09.6

>  <random_seed>  (1) 
42

>  <generated_at>  (1) 
2026-05-19T12:36:15

$$$$
