catalyst338
     RDKit          3D

  0  0  0  0  0  0  0  0  0  0999 V3000
M  V30 BEGIN CTAB
M  V30 COUNTS 80 83 0 0 0
M  V30 BEGIN ATOM
M  V30 1 O 2.498699 0.562012 -1.023615 0
M  V30 2 C 1.830385 -0.461570 -1.008583 0
M  V30 3 N 2.298864 -1.754074 -0.919413 0
M  V30 4 C 3.638133 -2.184199 -0.906267 0
M  V30 5 C 3.870653 -3.536824 -0.631569 0
M  V30 6 C 5.174667 -4.056122 -0.584193 0
M  V30 7 C 5.399084 -5.519874 -0.292803 0
M  V30 8 F 5.355778 -6.282390 -1.418675 0
M  V30 9 F 6.603617 -5.771933 0.288812 0
M  V30 10 F 4.462426 -6.040715 0.548871 0
M  V30 11 C 6.254323 -3.199940 -0.844857 0
M  V30 12 C 6.040934 -1.844586 -1.141601 0
M  V30 13 C 7.201651 -0.914006 -1.404691 0
M  V30 14 F 7.518492 -0.160032 -0.317296 0
M  V30 15 F 6.965906 -0.039103 -2.420012 0
M  V30 16 F 8.344669 -1.574651 -1.744924 0
M  V30 17 C 4.725802 -1.348032 -1.162985 0
M  V30 18 N 0.452520 -0.452772 -1.051699 0
M  V30 19 C -0.310921 0.791053 -1.154741 0 CFG=1
M  V30 20 C -0.291378 1.308204 -2.612136 0
M  V30 21 C -0.890348 2.684914 -2.785910 0
M  V30 22 C -0.302869 3.798434 -2.169654 0
M  V30 23 C -0.862663 5.068015 -2.317802 0
M  V30 24 C -2.009990 5.239523 -3.088946 0
M  V30 25 C -2.596045 4.141972 -3.716268 0
M  V30 26 C -2.038245 2.870749 -3.568466 0
M  V30 27 C -1.738332 0.540499 -0.647199 0
M  V30 28 P -1.954979 0.685771 1.148332 0 CHG=1
M  V30 29 C -0.794917 -0.474166 1.903147 0
M  V30 30 C -0.760117 -1.942994 1.549177 0
M  V30 31 C -1.837419 -2.620086 0.972624 0
M  V30 32 C -1.747274 -3.983920 0.679413 0
M  V30 33 C -0.586188 -4.693031 0.978161 0
M  V30 34 C 0.485255 -4.040783 1.579322 0
M  V30 35 C 0.396845 -2.677312 1.864753 0
M  V30 36 C -3.617018 0.310630 1.634254 0
M  V30 37 C -4.654116 0.190800 0.701417 0
M  V30 38 C -5.955048 -0.105460 1.114055 0
M  V30 39 C -6.236617 -0.278543 2.466581 0
M  V30 40 C -5.218501 -0.149104 3.406886 0
M  V30 41 C -3.919144 0.147268 2.992575 0
M  V30 42 C -1.587131 2.359588 1.612440 0
M  V30 43 C -2.344136 3.403487 1.062138 0
M  V30 44 C -2.076950 4.733667 1.388418 0
M  V30 45 C -1.048454 5.038966 2.274377 0
M  V30 46 C -0.291414 4.013068 2.833995 0
M  V30 47 C -0.560402 2.681896 2.506131 0
M  V30 48 Br 0.000000 0.000000 0.000000 0 CHG=-1
M  V30 49 H 1.596640 -2.439806 -0.676684 0
M  V30 50 H 3.031747 -4.205758 -0.443446 0
M  V30 51 H 7.272593 -3.592213 -0.818457 0
M  V30 52 H 4.578981 -0.294477 -1.393279 0
M  V30 53 H 0.014218 -1.292774 -1.401783 0
M  V30 54 H 0.182709 1.523762 -0.506970 0
M  V30 55 H -0.808539 0.586655 -3.258714 0
M  V30 56 H 0.739320 1.347439 -2.988314 0
M  V30 57 H 0.595666 3.684274 -1.565229 0
M  V30 58 H -0.400892 5.921579 -1.828515 0
M  V30 59 H -2.443658 6.229052 -3.204586 0
M  V30 60 H -3.487199 4.276763 -4.323493 0
M  V30 61 H -2.508636 2.026941 -4.067433 0
M  V30 62 H -2.423924 1.274434 -1.081249 0
M  V30 63 H -2.094252 -0.441234 -0.978425 0
M  V30 64 H 0.204308 -0.071515 1.696791 0
M  V30 65 H -0.930345 -0.412927 2.989879 0
M  V30 66 H -2.769944 -2.111177 0.751391 0
M  V30 67 H -2.596864 -4.496941 0.234672 0
M  V30 68 H -0.528143 -5.757319 0.764757 0
M  V30 69 H 1.383240 -4.594457 1.842364 0
M  V30 70 H 1.241350 -2.183254 2.343777 0
M  V30 71 H -4.465363 0.331068 -0.358521 0
M  V30 72 H -6.750563 -0.195456 0.378979 0
M  V30 73 H -7.249294 -0.505573 2.788448 0
M  V30 74 H -5.435194 -0.272508 4.464685 0
M  V30 75 H -3.139208 0.259637 3.741770 0
M  V30 76 H -3.150915 3.184326 0.366483 0
M  V30 77 H -2.671191 5.528601 0.946166 0
M  V30 78 H -0.837220 6.073814 2.528648 0
M  V30 79 H 0.512896 4.248429 3.526176 0
M  V30 80 H 0.049591 1.906320 2.958541 0
M  V30 END ATOM
M  V30 BEGIN BOND
M  V30 1 2 1 2
M  V30 2 1 2 3
M  V30 3 1 3 4
M  V30 4 2 4 5
M  V30 5 1 5 6
M  V30 6 1 6 7
M  V30 7 1 7 8
M  V30 8 1 7 9
M  V30 9 1 7 10
M  V30 10 2 6 11
M  V30 11 1 11 12
M  V30 12 1 12 13
M  V30 13 1 13 14
M  V30 14 1 13 15
M  V30 15 1 13 16
M  V30 16 2 12 17
M  V30 17 1 2 18
M  V30 18 1 18 19
M  V30 19 1 19 20
M  V30 20 1 20 21
M  V30 21 2 21 22
M  V30 22 1 22 23
M  V30 23 2 23 24
M  V30 24 1 24 25
M  V30 25 2 25 26
M  V30 26 1 19 27
M  V30 27 1 27 28
M  V30 28 1 28 29
M  V30 29 1 29 30
M  V30 30 2 30 31
M  V30 31 1 31 32
M  V30 32 2 32 33
M  V30 33 1 33 34
M  V30 34 2 34 35
M  V30 35 1 28 36
M  V30 36 2 36 37
M  V30 37 1 37 38
M  V30 38 2 38 39
M  V30 39 1 39 40
M  V30 40 2 40 41
M  V30 41 1 28 42
M  V30 42 2 42 43
M  V30 43 1 43 44
M  V30 44 2 44 45
M  V30 45 1 45 46
M  V30 46 2 46 47
M  V30 47 1 17 4
M  V30 48 1 26 21
M  V30 49 1 35 30
M  V30 50 1 41 36
M  V30 51 1 47 42
M  V30 52 1 3 49
M  V30 53 1 5 50
M  V30 54 1 11 51
M  V30 55 1 17 52
M  V30 56 1 18 53
M  V30 57 1 19 54 CFG=1
M  V30 58 1 20 55
M  V30 59 1 20 56
M  V30 60 1 22 57
M  V30 61 1 23 58
M  V30 62 1 24 59
M  V30 63 1 25 60
M  V30 64 1 26 61
M  V30 65 1 27 62
M  V30 66 1 27 63
M  V30 67 1 29 64
M  V30 68 1 29 65
M  V30 69 1 31 66
M  V30 70 1 32 67
M  V30 71 1 33 68
M  V30 72 1 34 69
M  V30 73 1 35 70
M  V30 74 1 37 71
M  V30 75 1 38 72
M  V30 76 1 39 73
M  V30 77 1 40 74
M  V30 78 1 41 75
M  V30 79 1 43 76
M  V30 80 1 44 77
M  V30 81 1 45 78
M  V30 82 1 46 79
M  V30 83 1 47 80
M  V30 END BOND
M  V30 END CTAB
M  END
>  <catalyst_id>  (1) 
SRKAMPVDWMEXQZ_UCRKPPETSA_NONE

>  <source_smiles>  (1) 
O=C(Nc1cc(C(F)(F)F)cc(C(F)(F)F)c1)N[C@@H](Cc1ccccc1)C[P+](Cc1ccccc1)(c1ccccc1)c1ccccc1.[Br-]

>  <axial_configuration>  (1) 
none

>  <inchikey>  (1) 
SRKAMPVDWMEXQZ-UCRKPPETSA-N

>  <build_source>  (1) 
smiles

>  <rdkit_version>  (1) 
2025.09.6

>  <random_seed>  (1) 
42

>  <generated_at>  (1) 
2026-05-19T12:37:00

$$$$
