catalyst112
     RDKit          3D

  0  0  0  0  0  0  0  0  0  0999 V3000
M  V30 BEGIN CTAB
M  V30 COUNTS 45 48 0 0 0
M  V30 BEGIN ATOM
M  V30 1 C 4.520320 -1.324591 2.052991 0
M  V30 2 C 3.417234 -1.194135 1.304566 0
M  V30 3 C 3.312779 -0.277413 0.108112 0 CFG=1
M  V30 4 C 2.901574 -1.040523 -1.180045 0
M  V30 5 N 1.677552 -0.468700 -1.804304 0
M  V30 6 C 1.953475 0.946287 -2.147170 0
M  V30 7 C 2.358058 1.773528 -0.917687 0
M  V30 8 C 2.309581 0.881061 0.335288 0 CFG=1
M  V30 9 C 0.867631 0.348604 0.428968 0
M  V30 10 C 0.569551 -0.555370 -0.790408 0 CFG=1
M  V30 11 C -0.852306 -0.281941 -1.410842 0 CFG=1
M  V30 12 N -0.995050 -0.973066 -2.710868 0
M  V30 13 C -1.994192 -0.648137 -0.467343 0
M  V30 14 C -2.146395 -1.991144 -0.084067 0
M  V30 15 C -3.153276 -2.333004 0.794584 0
M  V30 16 N -4.013045 -1.446829 1.324895 0
M  V30 17 C -3.896624 -0.160733 0.963412 0
M  V30 18 C -4.802230 0.734440 1.516086 0
M  V30 19 C -4.778519 2.095122 1.213411 0
M  V30 20 C -3.826334 2.579033 0.332209 0
M  V30 21 C -2.902972 1.700002 -0.236785 0
M  V30 22 C -2.907597 0.312259 0.063437 0
M  V30 23 H 5.425700 -0.763044 1.844009 0
M  V30 24 H 4.538260 -2.001827 2.901902 0
M  V30 25 H 2.541903 -1.786110 1.565181 0
M  V30 26 H 4.300729 0.169441 -0.074571 0
M  V30 27 H 3.723879 -0.999582 -1.906788 0
M  V30 28 H 2.745488 -2.110183 -0.988541 0
M  V30 29 H 2.751637 0.989082 -2.899238 0
M  V30 30 H 1.082291 1.399066 -2.634066 0
M  V30 31 H 3.367004 2.180982 -1.053267 0
M  V30 32 H 1.678560 2.626394 -0.801515 0
M  V30 33 H 2.565854 1.463072 1.227597 0
M  V30 34 H 0.177361 1.199465 0.473710 0
M  V30 35 H 0.725906 -0.218701 1.355972 0
M  V30 36 H 0.563274 -1.596536 -0.437901 0
M  V30 37 H -0.895062 0.779228 -1.659503 0
M  V30 38 H -0.949914 -1.977663 -2.555381 0
M  V30 39 H -0.123639 -0.780795 -3.217715 0
M  V30 40 H -1.493293 -2.769579 -0.463533 0
M  V30 41 H -3.298291 -3.362847 1.107689 0
M  V30 42 H -5.554768 0.356983 2.205141 0
M  V30 43 H -5.505825 2.765363 1.662934 0
M  V30 44 H -3.800611 3.636028 0.080133 0
M  V30 45 H -2.185655 2.127012 -0.930364 0
M  V30 END ATOM
M  V30 BEGIN BOND
M  V30 1 2 1 2
M  V30 2 1 2 3
M  V30 3 1 3 4
M  V30 4 1 4 5
M  V30 5 1 5 6
M  V30 6 1 6 7
M  V30 7 1 7 8
M  V30 8 1 8 9
M  V30 9 1 9 10
M  V30 10 1 10 11
M  V30 11 1 11 12
M  V30 12 1 11 13
M  V30 13 2 13 14
M  V30 14 1 14 15
M  V30 15 2 15 16
M  V30 16 1 16 17
M  V30 17 2 17 18
M  V30 18 1 18 19
M  V30 19 2 19 20
M  V30 20 1 20 21
M  V30 21 2 21 22
M  V30 22 1 8 3
M  V30 23 1 22 13
M  V30 24 1 10 5
M  V30 25 1 22 17
M  V30 26 1 1 23
M  V30 27 1 1 24
M  V30 28 1 2 25
M  V30 29 1 3 26 CFG=3
M  V30 30 1 4 27
M  V30 31 1 4 28
M  V30 32 1 6 29
M  V30 33 1 6 30
M  V30 34 1 7 31
M  V30 35 1 7 32
M  V30 36 1 8 33 CFG=1
M  V30 37 1 9 34
M  V30 38 1 9 35
M  V30 39 1 10 36 CFG=1
M  V30 40 1 11 37 CFG=3
M  V30 41 1 12 38
M  V30 42 1 12 39
M  V30 43 1 14 40
M  V30 44 1 15 41
M  V30 45 1 18 42
M  V30 46 1 19 43
M  V30 47 1 20 44
M  V30 48 1 21 45
M  V30 END BOND
M  V30 END CTAB
M  END
>  <catalyst_id>  (1) 
ILZIKKYERYJBJZ_LSOMNZGLSA_NONE

>  <source_smiles>  (1) 
C=C[C@H]1CN2CC[C@H]1C[C@H]2[C@@H](N)c1ccnc2ccccc12

>  <axial_configuration>  (1) 
none

>  <inchikey>  (1) 
ILZIKKYERYJBJZ-LSOMNZGLSA-N

>  <build_source>  (1) 
smiles

>  <rdkit_version>  (1) 
2025.09.6

>  <random_seed>  (1) 
42

>  <generated_at>  (1) 
2026-05-19T12:34:17

$$$$
