catalyst349
     RDKit          3D

  0  0  0  0  0  0  0  0  0  0999 V3000
M  V30 BEGIN CTAB
M  V30 COUNTS 68 71 0 0 0
M  V30 BEGIN ATOM
M  V30 1 C -0.972565 2.597748 -0.153804 0
M  V30 2 N 0.019921 1.572508 0.163102 0
M  V30 3 C 0.906179 2.046336 1.243292 0
M  V30 4 C 1.766064 0.960305 1.860762 0
M  V30 5 C 1.199916 -0.241578 2.312106 0
M  V30 6 C 1.996394 -1.233681 2.885240 0
M  V30 7 C 3.367827 -1.031969 3.023356 0
M  V30 8 C 3.941924 0.163103 2.594471 0
M  V30 9 C 3.145402 1.156219 2.021440 0
M  V30 10 C 0.757669 1.046204 -1.032157 0 CFG=2
M  V30 11 C 1.588704 2.083210 -1.797284 0
M  V30 12 C 2.986230 2.097282 -1.643100 0
M  V30 13 C 3.777112 3.018687 -2.332021 0
M  V30 14 C 3.185330 3.939754 -3.191263 0
M  V30 15 C 1.804115 3.936411 -3.365234 0
M  V30 16 C 1.012205 3.014157 -2.676798 0
M  V30 17 C -0.153495 0.164586 -1.993214 0 CFG=2
M  V30 18 N -1.170557 -0.590232 -1.225987 0
M  V30 19 C -2.289857 -1.207669 -1.697634 0
M  V30 20 S -2.807960 -1.228544 -3.286804 0
M  V30 21 N -3.022176 -1.927978 -0.794114 0
M  V30 22 C -3.190414 -1.773812 0.594626 0
M  V30 23 C -2.890822 -0.594626 1.279340 0
M  V30 24 C -3.151451 -0.469312 2.654808 0
M  V30 25 C -2.844932 0.825551 3.370842 0
M  V30 26 F -3.124218 1.927217 2.621318 0
M  V30 27 F -3.551765 0.975212 4.525781 0
M  V30 28 F -1.534738 0.926929 3.719162 0
M  V30 29 C -3.695697 -1.562727 3.345947 0
M  V30 30 C -4.010985 -2.753523 2.673972 0
M  V30 31 C -4.637818 -3.912399 3.411988 0
M  V30 32 F -4.325418 -5.121199 2.868716 0
M  V30 33 F -4.254888 -3.980247 4.716830 0
M  V30 34 F -5.996302 -3.842872 3.420720 0
M  V30 35 C -3.775228 -2.835714 1.291885 0
M  V30 36 C 0.715198 -0.787188 -2.817191 0
M  V30 37 C 1.299723 -1.929266 -2.243046 0
M  V30 38 C 2.110092 -2.773411 -3.003969 0
M  V30 39 C 2.349457 -2.487596 -4.346019 0
M  V30 40 C 1.779701 -1.357844 -4.928681 0
M  V30 41 C 0.968975 -0.511890 -4.170001 0
M  V30 42 H -1.609592 2.783107 0.718158 0
M  V30 43 H -0.519876 3.554576 -0.432917 0
M  V30 44 H -1.645725 2.278654 -0.955502 0
M  V30 45 H 0.296866 2.445873 2.065795 0
M  V30 46 H 1.529567 2.880176 0.897136 0
M  V30 47 H 0.130548 -0.406215 2.217395 0
M  V30 48 H 1.545910 -2.160954 3.228777 0
M  V30 49 H 3.988607 -1.803053 3.471847 0
M  V30 50 H 5.010684 0.323907 2.709729 0
M  V30 51 H 3.609923 2.085048 1.697329 0
M  V30 52 H 1.474913 0.322495 -0.623814 0
M  V30 53 H 3.473643 1.375216 -0.990922 0
M  V30 54 H 4.856177 3.010733 -2.202472 0
M  V30 55 H 3.800686 4.655207 -3.730101 0
M  V30 56 H 1.341167 4.651048 -4.041035 0
M  V30 57 H -0.062163 3.035369 -2.841054 0
M  V30 58 H -0.716249 0.816456 -2.671094 0
M  V30 59 H -0.872461 -0.837793 -0.293594 0
M  V30 60 H -3.630169 -2.606768 -1.242288 0
M  V30 61 H -2.510418 0.272539 0.744748 0
M  V30 62 H -3.893588 -1.480202 4.416457 0
M  V30 63 H -4.035575 -3.753262 0.764289 0
M  V30 64 H 1.127970 -2.169320 -1.196362 0
M  V30 65 H 2.554117 -3.654616 -2.548812 0
M  V30 66 H 2.978896 -3.145646 -4.938815 0
M  V30 67 H 1.964871 -1.134041 -5.975901 0
M  V30 68 H 0.534418 0.365321 -4.644429 0
M  V30 END ATOM
M  V30 BEGIN BOND
M  V30 1 1 1 2
M  V30 2 1 2 3
M  V30 3 1 3 4
M  V30 4 2 4 5
M  V30 5 1 5 6
M  V30 6 2 6 7
M  V30 7 1 7 8
M  V30 8 2 8 9
M  V30 9 1 2 10
M  V30 10 1 10 11
M  V30 11 2 11 12
M  V30 12 1 12 13
M  V30 13 2 13 14
M  V30 14 1 14 15
M  V30 15 2 15 16
M  V30 16 1 10 17
M  V30 17 1 17 18
M  V30 18 1 18 19
M  V30 19 2 19 20
M  V30 20 1 19 21
M  V30 21 1 21 22
M  V30 22 2 22 23
M  V30 23 1 23 24
M  V30 24 1 24 25
M  V30 25 1 25 26
M  V30 26 1 25 27
M  V30 27 1 25 28
M  V30 28 2 24 29
M  V30 29 1 29 30
M  V30 30 1 30 31
M  V30 31 1 31 32
M  V30 32 1 31 33
M  V30 33 1 31 34
M  V30 34 2 30 35
M  V30 35 1 17 36
M  V30 36 2 36 37
M  V30 37 1 37 38
M  V30 38 2 38 39
M  V30 39 1 39 40
M  V30 40 2 40 41
M  V30 41 1 9 4
M  V30 42 1 16 11
M  V30 43 1 35 22
M  V30 44 1 41 36
M  V30 45 1 1 42
M  V30 46 1 1 43
M  V30 47 1 1 44
M  V30 48 1 3 45
M  V30 49 1 3 46
M  V30 50 1 5 47
M  V30 51 1 6 48
M  V30 52 1 7 49
M  V30 53 1 8 50
M  V30 54 1 9 51
M  V30 55 1 10 52 CFG=1
M  V30 56 1 12 53
M  V30 57 1 13 54
M  V30 58 1 14 55
M  V30 59 1 15 56
M  V30 60 1 16 57
M  V30 61 1 17 58 CFG=3
M  V30 62 1 18 59
M  V30 63 1 21 60
M  V30 64 1 23 61
M  V30 65 1 29 62
M  V30 66 1 35 63
M  V30 67 1 37 64
M  V30 68 1 38 65
M  V30 69 1 39 66
M  V30 70 1 40 67
M  V30 71 1 41 68
M  V30 END BOND
M  V30 END CTAB
M  END
>  <catalyst_id>  (1) 
UHELGFPQZQXHFI_VSGBNLITSA_NONE

>  <source_smiles>  (1) 
CN(Cc1ccccc1)[C@H](c1ccccc1)[C@H](NC(=S)Nc1cc(C(F)(F)F)cc(C(F)(F)F)c1)c1ccccc1

>  <axial_configuration>  (1) 
none

>  <inchikey>  (1) 
UHELGFPQZQXHFI-VSGBNLITSA-N

>  <build_source>  (1) 
smiles

>  <rdkit_version>  (1) 
2025.09.6

>  <random_seed>  (1) 
42

>  <generated_at>  (1) 
2026-05-19T12:30:11

$$$$
