catalyst135
     RDKit          3D

  0  0  0  0  0  0  0  0  0  0999 V3000
M  V30 BEGIN CTAB
M  V30 COUNTS 55 57 0 0 0
M  V30 BEGIN ATOM
M  V30 1 F 5.899774 -1.280833 -3.733809 0
M  V30 2 C 5.140353 -0.278444 -3.212591 0
M  V30 3 F 4.069721 -0.150973 -4.045451 0
M  V30 4 F 5.867227 0.861939 -3.358990 0
M  V30 5 C 4.741266 -0.523401 -1.777377 0
M  V30 6 C 3.545952 0.014463 -1.271095 0
M  V30 7 C 3.169911 -0.171451 0.065912 0
M  V30 8 N 1.934570 0.384956 0.463735 0
M  V30 9 C 1.436183 0.694196 1.703532 0
M  V30 10 S 2.251166 0.838658 3.153235 0
M  V30 11 N 0.092511 0.946694 1.749028 0
M  V30 12 C -0.926625 0.898817 0.682072 0 CFG=2
M  V30 13 C -0.980015 2.259285 -0.031633 0
M  V30 14 C -1.643209 3.340570 0.815276 0
M  V30 15 C -3.040270 2.933200 1.260039 0
M  V30 16 C -3.038693 1.594656 1.988607 0
M  V30 17 C -2.300464 0.439344 1.271512 0 CFG=1
M  V30 18 N -3.220677 -0.314265 0.379004 0
M  V30 19 C -3.424804 0.235222 -0.963655 0
M  V30 20 C -4.517897 -0.527616 -1.717427 0
M  V30 21 C -4.194236 -2.012779 -1.806016 0
M  V30 22 C -3.898565 -2.568910 -0.420326 0
M  V30 23 C -2.837046 -1.737470 0.302643 0
M  V30 24 C 3.991979 -0.938360 0.892173 0
M  V30 25 C 5.202960 -1.475176 0.418426 0
M  V30 26 C 6.065991 -2.313978 1.331927 0
M  V30 27 F 6.103084 -1.850167 2.610364 0
M  V30 28 F 5.631282 -3.601557 1.408870 0
M  V30 29 F 7.364006 -2.382358 0.923093 0
M  V30 30 C 5.568981 -1.259506 -0.918583 0
M  V30 31 H 2.912344 0.597556 -1.938857 0
M  V30 32 H 1.388213 0.769411 -0.293168 0
M  V30 33 H -0.221418 1.237333 2.670234 0
M  V30 34 H -0.584085 0.142903 -0.032809 0
M  V30 35 H 0.031169 2.592268 -0.295055 0
M  V30 36 H -1.521549 2.170341 -0.978329 0
M  V30 37 H -1.025085 3.553322 1.695998 0
M  V30 38 H -1.700001 4.271941 0.240152 0
M  V30 39 H -3.443713 3.704021 1.927733 0
M  V30 40 H -3.712869 2.903042 0.398488 0
M  V30 41 H -4.070969 1.302432 2.220140 0
M  V30 42 H -2.556929 1.747875 2.964458 0
M  V30 43 H -2.068605 -0.254503 2.093731 0
M  V30 44 H -3.742745 1.277708 -0.915485 0
M  V30 45 H -2.499859 0.193879 -1.551172 0
M  V30 46 H -5.480500 -0.390305 -1.208498 0
M  V30 47 H -4.628125 -0.113895 -2.726309 0
M  V30 48 H -5.030724 -2.555122 -2.260013 0
M  V30 49 H -3.322449 -2.160863 -2.454996 0
M  V30 50 H -4.821571 -2.579434 0.173384 0
M  V30 51 H -3.561109 -3.608255 -0.503268 0
M  V30 52 H -1.869740 -1.853237 -0.202275 0
M  V30 53 H -2.729392 -2.155995 1.310817 0
M  V30 54 H 3.701691 -1.169245 1.913563 0
M  V30 55 H 6.503603 -1.677933 -1.296559 0
M  V30 END ATOM
M  V30 BEGIN BOND
M  V30 1 1 1 2
M  V30 2 1 2 3
M  V30 3 1 2 4
M  V30 4 1 2 5
M  V30 5 2 5 6
M  V30 6 1 6 7
M  V30 7 1 7 8
M  V30 8 1 8 9
M  V30 9 2 9 10
M  V30 10 1 9 11
M  V30 11 1 11 12
M  V30 12 1 12 13
M  V30 13 1 13 14
M  V30 14 1 14 15
M  V30 15 1 15 16
M  V30 16 1 16 17
M  V30 17 1 17 18
M  V30 18 1 18 19
M  V30 19 1 19 20
M  V30 20 1 20 21
M  V30 21 1 21 22
M  V30 22 1 22 23
M  V30 23 2 7 24
M  V30 24 1 24 25
M  V30 25 1 25 26
M  V30 26 1 26 27
M  V30 27 1 26 28
M  V30 28 1 26 29
M  V30 29 2 25 30
M  V30 30 1 30 5
M  V30 31 1 17 12
M  V30 32 1 23 18
M  V30 33 1 6 31
M  V30 34 1 8 32
M  V30 35 1 11 33
M  V30 36 1 12 34 CFG=3
M  V30 37 1 13 35
M  V30 38 1 13 36
M  V30 39 1 14 37
M  V30 40 1 14 38
M  V30 41 1 15 39
M  V30 42 1 15 40
M  V30 43 1 16 41
M  V30 44 1 16 42
M  V30 45 1 17 43 CFG=1
M  V30 46 1 19 44
M  V30 47 1 19 45
M  V30 48 1 20 46
M  V30 49 1 20 47
M  V30 50 1 21 48
M  V30 51 1 21 49
M  V30 52 1 22 50
M  V30 53 1 22 51
M  V30 54 1 23 52
M  V30 55 1 23 53
M  V30 56 1 24 54
M  V30 57 1 30 55
M  V30 END BOND
M  V30 END CTAB
M  END
>  <catalyst_id>  (1) 
JPNIOHVSKNMMJH_IAGOWNOFSA_NONE

>  <source_smiles>  (1) 
FC(F)(F)c1cc(NC(=S)N[C@@H]2CCCC[C@H]2N2CCCCC2)cc(C(F)(F)F)c1

>  <axial_configuration>  (1) 
none

>  <inchikey>  (1) 
JPNIOHVSKNMMJH-IAGOWNOFSA-N

>  <build_source>  (1) 
smiles

>  <rdkit_version>  (1) 
2025.09.6

>  <random_seed>  (1) 
42

>  <generated_at>  (1) 
2026-05-19T12:36:50

$$$$
