catalyst310
     RDKit          3D

  0  0  0  0  0  0  0  0  0  0999 V3000
M  V30 BEGIN CTAB
M  V30 COUNTS 62 66 0 0 0
M  V30 BEGIN ATOM
M  V30 1 C -6.867904 -1.347914 -1.054248 0
M  V30 2 C -5.560947 -1.057943 -1.095715 0
M  V30 3 C -4.464945 -2.066376 -0.842252 0 CFG=1
M  V30 4 C -3.466114 -2.155088 -2.026945 0
M  V30 5 N -2.062682 -1.916666 -1.593883 0
M  V30 6 C -1.708523 -2.941102 -0.584247 0
M  V30 7 C -2.646030 -2.899013 0.631990 0
M  V30 8 C -3.667519 -1.761326 0.450230 0 CFG=1
M  V30 9 C -2.848295 -0.466044 0.296059 0
M  V30 10 C -1.995659 -0.541016 -0.991795 0 CFG=1
M  V30 11 C -0.518052 -0.047444 -0.771694 0 CFG=1
M  V30 12 N 0.317478 -0.472120 -1.911864 0
M  V30 13 C 1.677987 -0.655614 -1.906816 0
M  V30 14 S 2.285121 -1.752535 -3.008083 0
M  V30 15 N 2.357446 0.123784 -1.006014 0
M  V30 16 C 3.665123 0.041814 -0.484768 0
M  V30 17 C 4.169071 1.192112 0.136901 0
M  V30 18 C 5.445876 1.199698 0.707718 0
M  V30 19 C 6.244598 0.049891 0.676369 0
M  V30 20 C 7.613089 0.045298 1.310987 0
M  V30 21 F 8.471973 -0.839555 0.732168 0
M  V30 22 F 7.568196 -0.286589 2.631098 0
M  V30 23 F 8.233490 1.257086 1.252352 0
M  V30 24 C 5.725421 -1.109171 0.084348 0
M  V30 25 C 4.446079 -1.112898 -0.486264 0
M  V30 26 C -0.462376 1.466219 -0.577917 0
M  V30 27 C -0.708833 2.285438 -1.691489 0
M  V30 28 C -0.656748 3.654371 -1.542326 0
M  V30 29 N -0.378912 4.263955 -0.376208 0
M  V30 30 C -0.134769 3.501536 0.699378 0
M  V30 31 C 0.162561 4.153214 1.887943 0
M  V30 32 C 0.448074 3.457529 3.062057 0
M  V30 33 C 0.437781 2.072503 3.053017 0
M  V30 34 C 0.138650 1.392562 1.871706 0
M  V30 35 C -0.157361 2.085025 0.669324 0
M  V30 36 H -7.613040 -0.582040 -1.248932 0
M  V30 37 H -7.227687 -2.346463 -0.825623 0
M  V30 38 H -5.264690 -0.037998 -1.333559 0
M  V30 39 H -4.925082 -3.057907 -0.723137 0
M  V30 40 H -3.532569 -3.149921 -2.487183 0
M  V30 41 H -3.722113 -1.452701 -2.830842 0
M  V30 42 H -0.668622 -2.815796 -0.261349 0
M  V30 43 H -1.745033 -3.936148 -1.045596 0
M  V30 44 H -2.063082 -2.741187 1.547338 0
M  V30 45 H -3.164478 -3.859044 0.740966 0
M  V30 46 H -4.327863 -1.699650 1.322472 0
M  V30 47 H -2.220640 -0.339484 1.185178 0
M  V30 48 H -3.510286 0.406362 0.253492 0
M  V30 49 H -2.447701 0.133008 -1.733387 0
M  V30 50 H -0.095724 -0.571848 0.088933 0
M  V30 51 H -0.155405 -1.159039 -2.498396 0
M  V30 52 H 1.896991 1.005907 -0.826514 0
M  V30 53 H 3.577735 2.104906 0.177833 0
M  V30 54 H 5.814064 2.111570 1.175910 0
M  V30 55 H 6.313322 -2.026300 0.066465 0
M  V30 56 H 4.081404 -2.048375 -0.895889 0
M  V30 57 H -0.926697 1.861573 -2.668054 0
M  V30 58 H -0.838928 4.318511 -2.382559 0
M  V30 59 H 0.174965 5.241301 1.898876 0
M  V30 60 H 0.678035 4.001397 3.974460 0
M  V30 61 H 0.662468 1.518155 3.961111 0
M  V30 62 H 0.148309 0.307594 1.916821 0
M  V30 END ATOM
M  V30 BEGIN BOND
M  V30 1 2 1 2
M  V30 2 1 2 3
M  V30 3 1 3 4
M  V30 4 1 4 5
M  V30 5 1 5 6
M  V30 6 1 6 7
M  V30 7 1 7 8
M  V30 8 1 8 9
M  V30 9 1 9 10
M  V30 10 1 10 11
M  V30 11 1 11 12
M  V30 12 1 12 13
M  V30 13 2 13 14
M  V30 14 1 13 15
M  V30 15 1 15 16
M  V30 16 2 16 17
M  V30 17 1 17 18
M  V30 18 2 18 19
M  V30 19 1 19 20
M  V30 20 1 20 21
M  V30 21 1 20 22
M  V30 22 1 20 23
M  V30 23 1 19 24
M  V30 24 2 24 25
M  V30 25 1 11 26
M  V30 26 2 26 27
M  V30 27 1 27 28
M  V30 28 2 28 29
M  V30 29 1 29 30
M  V30 30 2 30 31
M  V30 31 1 31 32
M  V30 32 2 32 33
M  V30 33 1 33 34
M  V30 34 2 34 35
M  V30 35 1 8 3
M  V30 36 1 25 16
M  V30 37 1 35 26
M  V30 38 1 10 5
M  V30 39 1 35 30
M  V30 40 1 1 36
M  V30 41 1 1 37
M  V30 42 1 2 38
M  V30 43 1 3 39 CFG=1
M  V30 44 1 4 40
M  V30 45 1 4 41
M  V30 46 1 6 42
M  V30 47 1 6 43
M  V30 48 1 7 44
M  V30 49 1 7 45
M  V30 50 1 8 46 CFG=1
M  V30 51 1 9 47
M  V30 52 1 9 48
M  V30 53 1 10 49 CFG=3
M  V30 54 1 11 50 CFG=1
M  V30 55 1 12 51
M  V30 56 1 15 52
M  V30 57 1 17 53
M  V30 58 1 18 54
M  V30 59 1 24 55
M  V30 60 1 25 56
M  V30 61 1 27 57
M  V30 62 1 28 58
M  V30 63 1 31 59
M  V30 64 1 32 60
M  V30 65 1 33 61
M  V30 66 1 34 62
M  V30 END BOND
M  V30 END CTAB
M  END
>  <catalyst_id>  (1) 
RPDBTFZIZCWSFK_WBYKHBECSA_NONE

>  <source_smiles>  (1) 
C=C[C@H]1CN2CC[C@H]1C[C@H]2[C@@H](NC(=S)Nc1ccc(C(F)(F)F)cc1)c1ccnc2ccccc12

>  <axial_configuration>  (1) 
none

>  <inchikey>  (1) 
RPDBTFZIZCWSFK-WBYKHBECSA-N

>  <build_source>  (1) 
smiles

>  <rdkit_version>  (1) 
2025.09.6

>  <random_seed>  (1) 
42

>  <generated_at>  (1) 
2026-05-19T12:37:13

$$$$
