catalyst62
     RDKit          3D

  0  0  0  0  0  0  0  0  0  0999 V3000
M  V30 BEGIN CTAB
M  V30 COUNTS 79 84 0 0 0
M  V30 BEGIN ATOM
M  V30 1 C -3.673192 5.430872 1.547990 0
M  V30 2 C -3.259829 4.179146 1.310712 0
M  V30 3 C -3.572055 3.412518 0.046908 0 CFG=1
M  V30 4 C -2.284643 2.934163 -0.674117 0
M  V30 5 N -2.327589 1.482267 -0.998154 0
M  V30 6 C -3.535124 1.233885 -1.818751 0
M  V30 7 C -4.828627 1.576918 -1.065547 0
M  V30 8 C -4.475230 2.181799 0.305080 0 CFG=1
M  V30 9 C -3.701966 1.093404 1.071424 0
M  V30 10 C -2.408893 0.726084 0.299879 0 CFG=1
M  V30 11 C -2.187464 -0.817846 0.121318 0 CFG=2
M  V30 12 O -3.409931 -1.459083 -0.278069 0
M  V30 13 C -3.187783 -2.649202 -1.032483 0
M  V30 14 C -4.504934 -3.362322 -1.183221 0
M  V30 15 C -5.538151 -2.789299 -1.938759 0
M  V30 16 C -6.761649 -3.445536 -2.080162 0
M  V30 17 C -6.965627 -4.679649 -1.466051 0
M  V30 18 C -5.948366 -5.256564 -0.707851 0
M  V30 19 C -4.724000 -4.601039 -0.564929 0
M  V30 20 C -1.648299 -1.435787 1.412652 0
M  V30 21 C -2.540038 -2.037897 2.311407 0
M  V30 22 C -2.044670 -2.595563 3.470808 0
M  V30 23 N -0.740033 -2.592025 3.801461 0
M  V30 24 C 0.126609 -2.006584 2.961407 0
M  V30 25 C 1.466209 -1.995579 3.316992 0
M  V30 26 C 2.446945 -1.399708 2.516485 0
M  V30 27 C 2.092736 -0.793854 1.319586 0
M  V30 28 N 3.004436 -0.148537 0.458018 0
M  V30 29 C 4.389903 -0.155959 0.539694 0
M  V30 30 O 5.044249 -0.819427 1.331910 0
M  V30 31 N 4.928184 0.702315 -0.410329 0
M  V30 32 C 6.291462 0.886220 -0.721445 0
M  V30 33 C 6.615744 1.952096 -1.569991 0
M  V30 34 C 7.947492 2.215099 -1.933232 0
M  V30 35 C 8.273768 3.362631 -2.858577 0
M  V30 36 F 9.511327 3.887154 -2.644950 0
M  V30 37 F 8.240509 2.992656 -4.167471 0
M  V30 38 F 7.401743 4.402589 -2.741154 0
M  V30 39 C 8.960274 1.373355 -1.451412 0
M  V30 40 C 8.654757 0.288480 -0.615522 0
M  V30 41 C 9.744110 -0.611397 -0.080025 0
M  V30 42 F 10.090987 -0.301977 1.198505 0
M  V30 43 F 10.895698 -0.539722 -0.806103 0
M  V30 44 F 9.394468 -1.926615 -0.073099 0
M  V30 45 C 7.315245 0.059653 -0.254127 0
M  V30 46 C 0.742564 -0.794024 0.945889 0
M  V30 47 C -0.263313 -1.400342 1.745693 0
M  V30 48 H -3.417270 5.933157 2.476347 0
M  V30 49 H -4.276043 5.981732 0.832605 0
M  V30 50 H -2.658400 3.680150 2.068378 0
M  V30 51 H -4.110232 4.080218 -0.641397 0
M  V30 52 H -2.157293 3.502738 -1.604999 0
M  V30 53 H -1.382002 3.148555 -0.086977 0
M  V30 54 H -3.558538 0.197378 -2.169704 0
M  V30 55 H -3.476135 1.833391 -2.736682 0
M  V30 56 H -5.425588 2.286543 -1.650532 0
M  V30 57 H -5.437823 0.674650 -0.933895 0
M  V30 58 H -5.386848 2.460290 0.845535 0
M  V30 59 H -4.357790 0.227639 1.213756 0
M  V30 60 H -3.442153 1.445484 2.076461 0
M  V30 61 H -1.560822 1.089672 0.897302 0
M  V30 62 H -1.454830 -0.973634 -0.680597 0
M  V30 63 H -2.458505 -3.296290 -0.531423 0
M  V30 64 H -2.792283 -2.391785 -2.022154 0
M  V30 65 H -5.392322 -1.821716 -2.413278 0
M  V30 66 H -7.556529 -2.991940 -2.666114 0
M  V30 67 H -7.918841 -5.190131 -1.574839 0
M  V30 68 H -6.109257 -6.217086 -0.225219 0
M  V30 69 H -3.943280 -5.063325 0.035041 0
M  V30 70 H -3.607007 -2.079636 2.111170 0
M  V30 71 H -2.704130 -3.076009 4.187956 0
M  V30 72 H 1.763473 -2.462593 4.254002 0
M  V30 73 H 3.472656 -1.422148 2.871480 0
M  V30 74 H 2.616383 0.237906 -0.388997 0
M  V30 75 H 4.287385 1.377990 -0.798342 0
M  V30 76 H 5.831025 2.602281 -1.955018 0
M  V30 77 H 9.998144 1.562787 -1.731611 0
M  V30 78 H 7.099922 -0.789141 0.392116 0
M  V30 79 H 0.466917 -0.304892 0.015458 0
M  V30 END ATOM
M  V30 BEGIN BOND
M  V30 1 2 1 2
M  V30 2 1 2 3
M  V30 3 1 3 4
M  V30 4 1 4 5
M  V30 5 1 5 6
M  V30 6 1 6 7
M  V30 7 1 7 8
M  V30 8 1 8 9
M  V30 9 1 9 10
M  V30 10 1 10 11
M  V30 11 1 11 12
M  V30 12 1 12 13
M  V30 13 1 13 14
M  V30 14 2 14 15
M  V30 15 1 15 16
M  V30 16 2 16 17
M  V30 17 1 17 18
M  V30 18 2 18 19
M  V30 19 1 11 20
M  V30 20 2 20 21
M  V30 21 1 21 22
M  V30 22 2 22 23
M  V30 23 1 23 24
M  V30 24 2 24 25
M  V30 25 1 25 26
M  V30 26 2 26 27
M  V30 27 1 27 28
M  V30 28 1 28 29
M  V30 29 2 29 30
M  V30 30 1 29 31
M  V30 31 1 31 32
M  V30 32 2 32 33
M  V30 33 1 33 34
M  V30 34 1 34 35
M  V30 35 1 35 36
M  V30 36 1 35 37
M  V30 37 1 35 38
M  V30 38 2 34 39
M  V30 39 1 39 40
M  V30 40 1 40 41
M  V30 41 1 41 42
M  V30 42 1 41 43
M  V30 43 1 41 44
M  V30 44 2 40 45
M  V30 45 1 27 46
M  V30 46 2 46 47
M  V30 47 1 8 3
M  V30 48 1 19 14
M  V30 49 1 47 20
M  V30 50 1 10 5
M  V30 51 1 47 24
M  V30 52 1 45 32
M  V30 53 1 1 48
M  V30 54 1 1 49
M  V30 55 1 2 50
M  V30 56 1 3 51 CFG=3
M  V30 57 1 4 52
M  V30 58 1 4 53
M  V30 59 1 6 54
M  V30 60 1 6 55
M  V30 61 1 7 56
M  V30 62 1 7 57
M  V30 63 1 8 58 CFG=1
M  V30 64 1 9 59
M  V30 65 1 9 60
M  V30 66 1 10 61 CFG=1
M  V30 67 1 11 62 CFG=3
M  V30 68 1 13 63
M  V30 69 1 13 64
M  V30 70 1 15 65
M  V30 71 1 16 66
M  V30 72 1 17 67
M  V30 73 1 18 68
M  V30 74 1 19 69
M  V30 75 1 21 70
M  V30 76 1 22 71
M  V30 77 1 25 72
M  V30 78 1 26 73
M  V30 79 1 28 74
M  V30 80 1 31 75
M  V30 81 1 33 76
M  V30 82 1 39 77
M  V30 83 1 45 78
M  V30 84 1 46 79
M  V30 END BOND
M  V30 END CTAB
M  END
>  <catalyst_id>  (1) 
FUVKOPXPLVKSJS_QWENJRSESA_NONE

>  <source_smiles>  (1) 
C=C[C@H]1CN2CC[C@H]1C[C@H]2[C@H](OCc1ccccc1)c1ccnc2ccc(NC(=O)Nc3cc(C(F)(F)F)cc(C(F)(F)F)c3)cc12

>  <axial_configuration>  (1) 
none

>  <inchikey>  (1) 
FUVKOPXPLVKSJS-QWENJRSESA-N

>  <build_source>  (1) 
smiles

>  <rdkit_version>  (1) 
2025.09.6

>  <random_seed>  (1) 
42

>  <generated_at>  (1) 
2026-05-19T12:34:08

$$$$
