catalyst173
     RDKit          3D

  0  0  0  0  0  0  0  0  0  0999 V3000
M  V30 BEGIN CTAB
M  V30 COUNTS 50 53 0 0 0
M  V30 BEGIN ATOM
M  V30 1 C 3.466118 2.124480 -2.472156 0
M  V30 2 C 3.527080 1.731512 -1.003403 0
M  V30 3 C 3.355140 0.219880 -0.765672 0 CFG=1
M  V30 4 C 3.485738 -0.129013 0.741978 0
M  V30 5 N 2.249882 -0.766054 1.276092 0
M  V30 6 C 2.072553 -2.051892 0.559538 0
M  V30 7 C 2.029172 -1.869703 -0.964031 0
M  V30 8 C 2.020895 -0.366233 -1.292612 0 CFG=1
M  V30 9 C 0.820409 0.233396 -0.535450 0
M  V30 10 C 1.101251 0.164290 0.977174 0 CFG=1
M  V30 11 C -0.119187 -0.011130 1.947875 0 CFG=2
M  V30 12 O 0.397875 -0.408844 3.236040 0
M  V30 13 C -1.256776 -0.935305 1.551005 0
M  V30 14 C -1.264730 -2.258178 2.012787 0
M  V30 15 C -2.294920 -3.096965 1.641145 0
M  V30 16 N -3.315361 -2.721372 0.848657 0
M  V30 17 C -3.342651 -1.452154 0.418314 0
M  V30 18 C -4.410419 -1.069163 -0.380232 0
M  V30 19 C -4.541860 0.230431 -0.879101 0
M  V30 20 C -3.581940 1.182259 -0.571859 0
M  V30 21 O -3.574205 2.484983 -0.984567 0
M  V30 22 C -4.677303 2.915356 -1.773218 0
M  V30 23 C -2.498587 0.815052 0.231125 0
M  V30 24 C -2.345405 -0.501028 0.738768 0
M  V30 25 H 3.709209 3.185826 -2.586529 0
M  V30 26 H 4.183208 1.547453 -3.064355 0
M  V30 27 H 2.466300 1.969123 -2.887699 0
M  V30 28 H 4.503583 2.038776 -0.607990 0
M  V30 29 H 2.776668 2.305043 -0.448409 0
M  V30 30 H 4.175555 -0.286554 -1.293918 0
M  V30 31 H 3.722508 0.759541 1.340748 0
M  V30 32 H 4.335577 -0.808004 0.891843 0
M  V30 33 H 2.891726 -2.732363 0.824980 0
M  V30 34 H 1.167419 -2.558886 0.899727 0
M  V30 35 H 1.133633 -2.353619 -1.371908 0
M  V30 36 H 2.897098 -2.353085 -1.428356 0
M  V30 37 H 1.912407 -0.225572 -2.372446 0
M  V30 38 H -0.072014 -0.330171 -0.819347 0
M  V30 39 H 0.654329 1.273097 -0.838912 0
M  V30 40 H 1.476767 1.157877 1.269031 0
M  V30 41 H -0.543389 0.980781 2.139520 0
M  V30 42 H 1.325043 -0.673825 3.053462 0
M  V30 43 H -0.481575 -2.632567 2.664954 0
M  V30 44 H -2.328099 -4.126930 1.984208 0
M  V30 45 H -5.170853 -1.809180 -0.621724 0
M  V30 46 H -5.404056 0.454929 -1.497339 0
M  V30 47 H -4.529984 3.974866 -2.003714 0
M  V30 48 H -5.618282 2.822043 -1.220946 0
M  V30 49 H -4.719333 2.370636 -2.722170 0
M  V30 50 H -1.766214 1.586158 0.454392 0
M  V30 END ATOM
M  V30 BEGIN BOND
M  V30 1 1 1 2
M  V30 2 1 2 3
M  V30 3 1 3 4
M  V30 4 1 4 5
M  V30 5 1 5 6
M  V30 6 1 6 7
M  V30 7 1 7 8
M  V30 8 1 8 9
M  V30 9 1 9 10
M  V30 10 1 10 11
M  V30 11 1 11 12
M  V30 12 1 11 13
M  V30 13 2 13 14
M  V30 14 1 14 15
M  V30 15 2 15 16
M  V30 16 1 16 17
M  V30 17 2 17 18
M  V30 18 1 18 19
M  V30 19 2 19 20
M  V30 20 1 20 21
M  V30 21 1 21 22
M  V30 22 1 20 23
M  V30 23 2 23 24
M  V30 24 1 8 3
M  V30 25 1 24 13
M  V30 26 1 10 5
M  V30 27 1 24 17
M  V30 28 1 1 25
M  V30 29 1 1 26
M  V30 30 1 1 27
M  V30 31 1 2 28
M  V30 32 1 2 29
M  V30 33 1 3 30 CFG=3
M  V30 34 1 4 31
M  V30 35 1 4 32
M  V30 36 1 6 33
M  V30 37 1 6 34
M  V30 38 1 7 35
M  V30 39 1 7 36
M  V30 40 1 8 37 CFG=3
M  V30 41 1 9 38
M  V30 42 1 9 39
M  V30 43 1 10 40 CFG=1
M  V30 44 1 11 41 CFG=1
M  V30 45 1 12 42
M  V30 46 1 14 43
M  V30 47 1 15 44
M  V30 48 1 18 45
M  V30 49 1 19 46
M  V30 50 1 22 47
M  V30 51 1 22 48
M  V30 52 1 22 49
M  V30 53 1 23 50
M  V30 END BOND
M  V30 END CTAB
M  END
>  <catalyst_id>  (1) 
LJOQGZACKSYWCH_WZBLMQSHSA_NONE

>  <source_smiles>  (1) 
CC[C@H]1CN2CC[C@H]1C[C@H]2[C@H](O)c1ccnc2ccc(OC)cc12

>  <axial_configuration>  (1) 
none

>  <inchikey>  (1) 
LJOQGZACKSYWCH-WZBLMQSHSA-N

>  <build_source>  (1) 
smiles

>  <rdkit_version>  (1) 
2025.09.6

>  <random_seed>  (1) 
42

>  <generated_at>  (1) 
2026-05-19T12:36:58

$$$$
