catalyst137
     RDKit          3D

  0  0  0  0  0  0  0  0  0  0999 V3000
M  V30 BEGIN CTAB
M  V30 COUNTS 29 30 0 0 0
M  V30 BEGIN ATOM
M  V30 1 N 4.250959 0.386279 -0.142657 0
M  V30 2 C 2.831218 0.185645 0.259803 0 CFG=2
M  V30 3 C 1.896413 0.805938 -0.791546 0
M  V30 4 C 0.521616 0.173600 -0.801823 0
M  V30 5 C 0.312311 -1.044148 -1.458851 0
M  V30 6 C -0.951049 -1.639585 -1.463335 0
M  V30 7 C -2.032885 -1.032431 -0.808436 0
M  V30 8 C -3.309108 -1.618897 -0.802212 0
M  V30 9 C -4.374244 -1.002439 -0.143583 0
M  V30 10 C -4.177101 0.206584 0.516862 0
M  V30 11 C -2.914681 0.802159 0.519223 0
M  V30 12 C -1.832797 0.195888 -0.139696 0
M  V30 13 C -0.556396 0.784223 -0.146326 0
M  V30 14 C 2.611758 0.796852 1.654078 0
M  V30 15 O 1.687122 1.491913 2.038509 0
M  V30 16 O 3.615604 0.483319 2.510502 0
M  V30 17 H 4.440779 1.387448 -0.194531 0
M  V30 18 H 4.828450 0.047170 0.632952 0
M  V30 19 H 2.656924 -0.893143 0.346730 0
M  V30 20 H 1.808268 1.891047 -0.649249 0
M  V30 21 H 2.318892 0.675806 -1.797782 0
M  V30 22 H 1.132741 -1.538033 -1.975885 0
M  V30 23 H -1.084581 -2.584894 -1.984343 0
M  V30 24 H -3.482026 -2.563656 -1.312361 0
M  V30 25 H -5.356556 -1.467236 -0.146582 0
M  V30 26 H -5.004691 0.687841 1.031132 0
M  V30 27 H -2.778641 1.746474 1.041750 0
M  V30 28 H -0.400316 1.728946 0.372877 0
M  V30 29 H 3.342016 0.907330 3.351381 0
M  V30 END ATOM
M  V30 BEGIN BOND
M  V30 1 1 1 2
M  V30 2 1 2 3
M  V30 3 1 3 4
M  V30 4 2 4 5
M  V30 5 1 5 6
M  V30 6 2 6 7
M  V30 7 1 7 8
M  V30 8 2 8 9
M  V30 9 1 9 10
M  V30 10 2 10 11
M  V30 11 1 11 12
M  V30 12 2 12 13
M  V30 13 1 2 14
M  V30 14 2 14 15
M  V30 15 1 14 16
M  V30 16 1 13 4
M  V30 17 1 12 7
M  V30 18 1 1 17
M  V30 19 1 1 18
M  V30 20 1 2 19 CFG=1
M  V30 21 1 3 20
M  V30 22 1 3 21
M  V30 23 1 5 22
M  V30 24 1 6 23
M  V30 25 1 8 24
M  V30 26 1 9 25
M  V30 27 1 10 26
M  V30 28 1 11 27
M  V30 29 1 13 28
M  V30 30 1 16 29
M  V30 END BOND
M  V30 END CTAB
M  END
>  <catalyst_id>  (1) 
JPZXHKDZASGCLU_GFCCVEGCSA_NONE

>  <source_smiles>  (1) 
N[C@H](Cc1ccc2ccccc2c1)C(=O)O

>  <axial_configuration>  (1) 
none

>  <inchikey>  (1) 
JPZXHKDZASGCLU-GFCCVEGCSA-N

>  <build_source>  (1) 
smiles

>  <rdkit_version>  (1) 
2025.09.6

>  <random_seed>  (1) 
42

>  <generated_at>  (1) 
2026-05-19T12:29:59

$$$$
