catalyst380
     RDKit          3D

  0  0  0  0  0  0  0  0  0  0999 V3000
M  V30 BEGIN CTAB
M  V30 COUNTS 86 89 0 0 0
M  V30 BEGIN ATOM
M  V30 1 F -6.101234 -1.127552 -1.829302 0
M  V30 2 C -5.759282 -2.040093 -0.877823 0
M  V30 3 F -6.320293 -1.603626 0.283300 0
M  V30 4 F -6.425462 -3.183023 -1.206256 0
M  V30 5 C -4.267454 -2.242825 -0.755361 0
M  V30 6 C -3.390006 -1.164885 -0.952966 0
M  V30 7 C -2.006254 -1.316114 -0.803063 0
M  V30 8 C -1.075518 -0.140302 -0.995164 0
M  V30 9 P -1.067570 1.174586 0.243726 0 CHG=1
M  V30 10 C -0.002082 2.470072 -0.477056 0
M  V30 11 C 1.507090 2.190482 -0.458643 0 CFG=2
M  V30 12 C 2.351701 3.487651 -0.448165 0
M  V30 13 C 2.187251 4.372765 -1.663413 0
M  V30 14 C 1.240496 5.406344 -1.672871 0
M  V30 15 C 1.077919 6.207632 -2.804158 0
M  V30 16 C 1.860852 5.986582 -3.935249 0
M  V30 17 C 2.810446 4.967330 -3.935080 0
M  V30 18 C 2.975404 4.166057 -2.804682 0
M  V30 19 N 1.890792 1.336828 -1.590766 0
M  V30 20 C 2.520208 0.125707 -1.633870 0
M  V30 21 S 2.787896 -0.508146 -3.155467 0
M  V30 22 N 2.856745 -0.412091 -0.420637 0
M  V30 23 C 3.078111 -1.749917 -0.028647 0
M  V30 24 C 3.702972 -1.954209 1.207472 0
M  V30 25 C 3.909972 -3.247060 1.717622 0
M  V30 26 C 4.565509 -3.430227 3.064988 0
M  V30 27 F 3.686825 -3.243123 4.087985 0
M  V30 28 F 5.095807 -4.670456 3.244017 0
M  V30 29 F 5.583366 -2.551951 3.280649 0
M  V30 30 C 3.454480 -4.348127 0.979270 0
M  V30 31 C 2.802054 -4.165195 -0.248465 0
M  V30 32 C 2.298524 -5.345407 -1.047457 0
M  V30 33 F 2.101910 -6.459557 -0.289816 0
M  V30 34 F 1.108376 -5.094763 -1.660962 0
M  V30 35 F 3.163412 -5.709155 -2.032203 0
M  V30 36 C 2.626070 -2.860100 -0.742570 0
M  V30 37 C -2.712039 1.822322 0.414509 0
M  V30 38 C -3.552476 1.355134 1.434907 0
M  V30 39 C -4.859699 1.827297 1.558779 0
M  V30 40 C -5.345595 2.773833 0.661538 0
M  V30 41 C -4.524989 3.244556 -0.360169 0
M  V30 42 C -3.217714 2.769488 -0.484434 0
M  V30 43 C -0.375691 0.730787 1.810563 0
M  V30 44 C 0.196710 -0.518323 2.059057 0
M  V30 45 C 0.748516 -0.820642 3.306409 0
M  V30 46 C 0.743337 0.130755 4.322073 0
M  V30 47 C 0.184209 1.383649 4.090749 0
M  V30 48 C -0.369426 1.679917 2.844356 0
M  V30 49 C -1.500580 -2.584323 -0.487403 0
M  V30 50 C -2.352790 -3.677761 -0.269463 0
M  V30 51 C -1.790403 -5.034608 0.084002 0
M  V30 52 F -2.513927 -5.665079 1.051163 0
M  V30 53 F -0.511736 -4.981568 0.556453 0
M  V30 54 F -1.766680 -5.882642 -0.978803 0
M  V30 55 C -3.737440 -3.494297 -0.404519 0
M  V30 56 Br 0.000000 0.000000 0.000000 0 CHG=-1
M  V30 57 H -3.802721 -0.194025 -1.228137 0
M  V30 58 H -0.057087 -0.522228 -1.089369 0
M  V30 59 H -1.308417 0.311495 -1.967773 0
M  V30 60 H -0.205577 3.364611 0.123355 0
M  V30 61 H -0.341770 2.674350 -1.498425 0
M  V30 62 H 1.741986 1.669166 0.470111 0
M  V30 63 H 3.413946 3.224002 -0.353266 0
M  V30 64 H 2.115027 4.068955 0.452806 0
M  V30 65 H 0.622802 5.599064 -0.798615 0
M  V30 66 H 0.341719 7.007426 -2.802427 0
M  V30 67 H 1.734705 6.611727 -4.815412 0
M  V30 68 H 3.425490 4.797263 -4.815300 0
M  V30 69 H 3.725526 3.377411 -2.821989 0
M  V30 70 H 1.684390 1.710444 -2.514002 0
M  V30 71 H 3.092082 0.275317 0.281955 0
M  V30 72 H 4.040244 -1.100625 1.795460 0
M  V30 73 H 3.596438 -5.357891 1.368857 0
M  V30 74 H 2.084474 -2.744507 -1.677423 0
M  V30 75 H -3.196722 0.602355 2.135528 0
M  V30 76 H -5.499827 1.449401 2.351977 0
M  V30 77 H -6.364877 3.139181 0.754941 0
M  V30 78 H -4.905914 3.978031 -1.066337 0
M  V30 79 H -2.605743 3.140942 -1.301370 0
M  V30 80 H 0.228781 -1.275061 1.285437 0
M  V30 81 H 1.178512 -1.803021 3.486759 0
M  V30 82 H 1.167825 -0.106986 5.294072 0
M  V30 83 H 0.170454 2.128379 4.882439 0
M  V30 84 H -0.811752 2.661229 2.682735 0
M  V30 85 H -0.424761 -2.731432 -0.406953 0
M  V30 86 H -4.409852 -4.337602 -0.238675 0
M  V30 END ATOM
M  V30 BEGIN BOND
M  V30 1 1 1 2
M  V30 2 1 2 3
M  V30 3 1 2 4
M  V30 4 1 2 5
M  V30 5 2 5 6
M  V30 6 1 6 7
M  V30 7 1 7 8
M  V30 8 1 8 9
M  V30 9 1 9 10
M  V30 10 1 10 11
M  V30 11 1 11 12
M  V30 12 1 12 13
M  V30 13 2 13 14
M  V30 14 1 14 15
M  V30 15 2 15 16
M  V30 16 1 16 17
M  V30 17 2 17 18
M  V30 18 1 11 19
M  V30 19 1 19 20
M  V30 20 2 20 21
M  V30 21 1 20 22
M  V30 22 1 22 23
M  V30 23 2 23 24
M  V30 24 1 24 25
M  V30 25 1 25 26
M  V30 26 1 26 27
M  V30 27 1 26 28
M  V30 28 1 26 29
M  V30 29 2 25 30
M  V30 30 1 30 31
M  V30 31 1 31 32
M  V30 32 1 32 33
M  V30 33 1 32 34
M  V30 34 1 32 35
M  V30 35 2 31 36
M  V30 36 1 9 37
M  V30 37 2 37 38
M  V30 38 1 38 39
M  V30 39 2 39 40
M  V30 40 1 40 41
M  V30 41 2 41 42
M  V30 42 1 9 43
M  V30 43 2 43 44
M  V30 44 1 44 45
M  V30 45 2 45 46
M  V30 46 1 46 47
M  V30 47 2 47 48
M  V30 48 2 7 49
M  V30 49 1 49 50
M  V30 50 1 50 51
M  V30 51 1 51 52
M  V30 52 1 51 53
M  V30 53 1 51 54
M  V30 54 2 50 55
M  V30 55 1 55 5
M  V30 56 1 18 13
M  V30 57 1 36 23
M  V30 58 1 42 37
M  V30 59 1 48 43
M  V30 60 1 6 57
M  V30 61 1 8 58
M  V30 62 1 8 59
M  V30 63 1 10 60
M  V30 64 1 10 61
M  V30 65 1 11 62 CFG=1
M  V30 66 1 12 63
M  V30 67 1 12 64
M  V30 68 1 14 65
M  V30 69 1 15 66
M  V30 70 1 16 67
M  V30 71 1 17 68
M  V30 72 1 18 69
M  V30 73 1 19 70
M  V30 74 1 22 71
M  V30 75 1 24 72
M  V30 76 1 30 73
M  V30 77 1 36 74
M  V30 78 1 38 75
M  V30 79 1 39 76
M  V30 80 1 40 77
M  V30 81 1 41 78
M  V30 82 1 42 79
M  V30 83 1 44 80
M  V30 84 1 45 81
M  V30 85 1 46 82
M  V30 86 1 47 83
M  V30 87 1 48 84
M  V30 88 1 49 85
M  V30 89 1 55 86
M  V30 END BOND
M  V30 END CTAB
M  END
>  <catalyst_id>  (1) 
WFRBQSKGSDTHLO_UCRKPPETSA_NONE

>  <source_smiles>  (1) 
FC(F)(F)c1cc(C[P+](C[C@H](Cc2ccccc2)NC(=S)Nc2cc(C(F)(F)F)cc(C(F)(F)F)c2)(c2ccccc2)c2ccccc2)cc(C(F)(F)F)c1.[Br-]

>  <axial_configuration>  (1) 
none

>  <inchikey>  (1) 
WFRBQSKGSDTHLO-UCRKPPETSA-N

>  <build_source>  (1) 
smiles

>  <rdkit_version>  (1) 
2025.09.6

>  <random_seed>  (1) 
42

>  <generated_at>  (1) 
2026-05-19T12:37:06

$$$$
