catalyst206
     RDKit          3D

  0  0  0  0  0  0  0  0  0  0999 V3000
M  V30 BEGIN CTAB
M  V30 COUNTS 78 84 0 0 0
M  V30 BEGIN ATOM
M  V30 1 F 7.872844 1.585541 5.120655 0
M  V30 2 C 6.634225 1.120604 4.799761 0
M  V30 3 F 6.347756 0.150199 5.708960 0
M  V30 4 F 5.773683 2.144465 5.059735 0
M  V30 5 C 6.539685 0.620712 3.378562 0
M  V30 6 C 5.318934 0.678705 2.685198 0
M  V30 7 C 5.195825 0.183466 1.380202 0
M  V30 8 N 3.930296 0.310126 0.767852 0
M  V30 9 C 3.369805 -0.333685 -0.305748 0
M  V30 10 S 3.864813 -1.742207 -1.053520 0
M  V30 11 N 2.233274 0.239591 -0.800246 0
M  V30 12 C 1.503429 1.452386 -0.406758 0 CFG=1
M  V30 13 C 2.314537 2.725318 -0.700819 0
M  V30 14 C 1.540965 3.983350 -0.312201 0
M  V30 15 C 0.171031 4.042446 -0.980263 0
M  V30 16 C -0.644718 2.775840 -0.718816 0
M  V30 17 C 0.129727 1.521466 -1.156034 0 CFG=2
M  V30 18 N -0.611299 0.245014 -1.076145 0
M  V30 19 C -1.573967 0.085147 -2.181245 0
M  V30 20 C -2.260737 -1.267252 -2.165670 0
M  V30 21 C -1.882988 -2.247401 -3.088680 0
M  V30 22 C -2.435203 -3.522297 -3.023121 0
M  V30 23 C -3.337257 -3.864096 -2.009196 0
M  V30 24 C -3.834173 -5.176634 -1.936780 0
M  V30 25 C -4.696562 -5.564521 -0.914026 0
M  V30 26 C -5.064783 -4.645554 0.056831 0
M  V30 27 C -4.582661 -3.335819 -0.007104 0
M  V30 28 C -3.727937 -2.895417 -1.048976 0
M  V30 29 C -3.225624 -1.558161 -1.165871 0
M  V30 30 C -3.611384 -0.464205 -0.221053 0
M  V30 31 C -2.582333 0.176788 0.522304 0
M  V30 32 C -2.912525 1.134355 1.487203 0
M  V30 33 C -4.236798 1.515317 1.679238 0
M  V30 34 C -5.260643 0.978211 0.891590 0
M  V30 35 C -6.580776 1.427303 1.066774 0
M  V30 36 C -7.617706 0.939970 0.274484 0
M  V30 37 C -7.345269 0.002033 -0.709879 0
M  V30 38 C -6.038375 -0.457707 -0.889289 0
M  V30 39 C -4.962067 -0.005234 -0.085458 0
M  V30 40 C -1.120871 -0.147276 0.253085 0
M  V30 41 C 6.327328 -0.338457 0.752801 0
M  V30 42 C 7.563037 -0.409660 1.421286 0
M  V30 43 C 8.764626 -1.008302 0.728004 0
M  V30 44 F 9.946927 -0.574507 1.249540 0
M  V30 45 F 8.817686 -0.713659 -0.599940 0
M  V30 46 F 8.793322 -2.365227 0.818418 0
M  V30 47 C 7.653536 0.057353 2.741045 0
M  V30 48 H 4.451864 1.103972 3.189701 0
M  V30 49 H 3.263518 0.856374 1.292536 0
M  V30 50 H 1.762114 -0.332334 -1.497855 0
M  V30 51 H 1.335004 1.389544 0.674553 0
M  V30 52 H 2.569068 2.765142 -1.767963 0
M  V30 53 H 3.267039 2.716970 -0.160600 0
M  V30 54 H 2.121653 4.871247 -0.586789 0
M  V30 55 H 1.415552 4.009360 0.777352 0
M  V30 56 H 0.297816 4.177732 -2.061469 0
M  V30 57 H -0.379288 4.915987 -0.612663 0
M  V30 58 H -1.596924 2.854502 -1.254344 0
M  V30 59 H -0.872688 2.730249 0.350687 0
M  V30 60 H 0.389085 1.657071 -2.217246 0
M  V30 61 H -1.038981 0.185804 -3.134886 0
M  V30 62 H -2.331517 0.879180 -2.192299 0
M  V30 63 H -1.140598 -2.030261 -3.853116 0
M  V30 64 H -2.121233 -4.264003 -3.754911 0
M  V30 65 H -3.539880 -5.917509 -2.677524 0
M  V30 66 H -5.066674 -6.585067 -0.870148 0
M  V30 67 H -5.723672 -4.941038 0.868937 0
M  V30 68 H -4.882833 -2.653270 0.785349 0
M  V30 69 H -2.138151 1.602904 2.089529 0
M  V30 70 H -4.459615 2.266446 2.434470 0
M  V30 71 H -6.812232 2.174538 1.823182 0
M  V30 72 H -8.632179 1.300734 0.420277 0
M  V30 73 H -8.143695 -0.375784 -1.343081 0
M  V30 74 H -5.866495 -1.182553 -1.682894 0
M  V30 75 H -0.982819 -1.230575 0.373862 0
M  V30 76 H -0.500298 0.274123 1.051927 0
M  V30 77 H 6.291591 -0.670610 -0.281135 0
M  V30 78 H 8.604833 -0.007305 3.272279 0
M  V30 END ATOM
M  V30 BEGIN BOND
M  V30 1 1 1 2
M  V30 2 1 2 3
M  V30 3 1 2 4
M  V30 4 1 2 5
M  V30 5 2 5 6
M  V30 6 1 6 7
M  V30 7 1 7 8
M  V30 8 1 8 9
M  V30 9 2 9 10
M  V30 10 1 9 11
M  V30 11 1 11 12
M  V30 12 1 12 13
M  V30 13 1 13 14
M  V30 14 1 14 15
M  V30 15 1 15 16
M  V30 16 1 16 17
M  V30 17 1 17 18
M  V30 18 1 18 19
M  V30 19 1 19 20
M  V30 20 2 20 21
M  V30 21 1 21 22
M  V30 22 2 22 23
M  V30 23 1 23 24
M  V30 24 2 24 25
M  V30 25 1 25 26
M  V30 26 2 26 27
M  V30 27 1 27 28
M  V30 28 2 28 29
M  V30 29 1 29 30
M  V30 30 2 30 31
M  V30 31 1 31 32
M  V30 32 2 32 33
M  V30 33 1 33 34
M  V30 34 2 34 35
M  V30 35 1 35 36
M  V30 36 2 36 37
M  V30 37 1 37 38
M  V30 38 2 38 39
M  V30 39 1 31 40
M  V30 40 2 7 41
M  V30 41 1 41 42
M  V30 42 1 42 43
M  V30 43 1 43 44
M  V30 44 1 43 45
M  V30 45 1 43 46
M  V30 46 2 42 47
M  V30 47 1 47 5
M  V30 48 1 17 12
M  V30 49 1 40 18
M  V30 50 1 29 20
M  V30 51 1 39 30
M  V30 52 1 28 23
M  V30 53 1 39 34
M  V30 54 1 6 48
M  V30 55 1 8 49
M  V30 56 1 11 50
M  V30 57 1 12 51 CFG=1
M  V30 58 1 13 52
M  V30 59 1 13 53
M  V30 60 1 14 54
M  V30 61 1 14 55
M  V30 62 1 15 56
M  V30 63 1 15 57
M  V30 64 1 16 58
M  V30 65 1 16 59
M  V30 66 1 17 60 CFG=3
M  V30 67 1 19 61
M  V30 68 1 19 62
M  V30 69 1 21 63
M  V30 70 1 22 64
M  V30 71 1 24 65
M  V30 72 1 25 66
M  V30 73 1 26 67
M  V30 74 1 27 68
M  V30 75 1 32 69
M  V30 76 1 33 70
M  V30 77 1 35 71
M  V30 78 1 36 72
M  V30 79 1 37 73
M  V30 80 1 38 74
M  V30 81 1 40 75
M  V30 82 1 40 76
M  V30 83 1 41 77
M  V30 84 1 47 78
M  V30 END BOND
M  V30 END CTAB
M  END
>  <catalyst_id>  (1) 
NBHCLYDPDKSHJN_ACHIHNKUSA_R

>  <source_smiles>  (1) 
FC(F)(F)c1cc(NC(=S)N[C@H]2CCCC[C@@H]2N2Cc3ccc4ccccc4c3-c3c(ccc4ccccc34)C2)cc(C(F)(F)F)c1

>  <axial_configuration>  (1) 
R

>  <inchikey>  (1) 
NBHCLYDPDKSHJN-ACHIHNKUSA-N

>  <build_source>  (1) 
smiles+axial_bridged

>  <final_biaryl_angle_deg>  (1) 
120.47

>  <n_valid_conformers>  (1) 
9

>  <rdkit_version>  (1) 
2025.09.6

>  <random_seed>  (1) 
42

>  <generated_at>  (1) 
2026-05-19T12:30:24

$$$$
