catalyst372
     RDKit          3D

  0  0  0  0  0  0  0  0  0  0999 V3000
M  V30 BEGIN CTAB
M  V30 COUNTS 90 96 0 0 0
M  V30 BEGIN ATOM
M  V30 1 C -7.202632 3.747738 1.075178 0
M  V30 2 C -6.253829 4.189238 1.910857 0
M  V30 3 C -5.356187 3.396516 2.839625 0 CFG=1
M  V30 4 C -5.616478 1.867059 2.997510 0
M  V30 5 N -4.442956 1.050119 2.561419 0
M  V30 6 C -3.324440 1.376506 3.478022 0
M  V30 7 C -3.017019 2.878574 3.520837 0
M  V30 8 C -3.863240 3.592672 2.457035 0 CFG=1
M  V30 9 C -3.553424 2.890514 1.121236 0
M  V30 10 C -4.143671 1.457279 1.140886 0 CFG=1
M  V30 11 C -3.304789 0.468848 0.230896 0 CFG=1
M  V30 12 N -2.151084 -0.091745 0.946091 0
M  V30 13 C -0.886307 0.115992 0.647846 0
M  V30 14 C 0.333356 -0.373519 1.051791 0
M  V30 15 N 0.753595 -1.261040 1.932569 0
M  V30 16 C 2.060876 -1.734411 2.180615 0
M  V30 17 C 3.066799 -1.707825 1.213303 0
M  V30 18 C 4.393577 -2.015494 1.533828 0
M  V30 19 C 5.474814 -1.879018 0.518046 0
M  V30 20 O 6.420472 -2.654716 0.573861 0
M  V30 21 N 5.302557 -0.835004 -0.376121 0
M  V30 22 C 6.137019 -0.486715 -1.457285 0
M  V30 23 C 5.779069 0.648936 -2.194856 0
M  V30 24 C 6.546089 1.076523 -3.291163 0
M  V30 25 C 6.126704 2.292147 -4.081961 0
M  V30 26 F 7.152594 2.861443 -4.773670 0
M  V30 27 F 5.168343 2.002184 -5.003535 0
M  V30 28 F 5.611469 3.281196 -3.300617 0
M  V30 29 C 7.680028 0.335328 -3.654546 0
M  V30 30 C 8.055998 -0.804777 -2.927718 0
M  V30 31 C 9.271621 -1.614288 -3.313058 0
M  V30 32 F 10.019297 -1.026983 -4.290147 0
M  V30 33 F 8.946221 -2.847777 -3.787567 0
M  V30 34 F 10.122108 -1.819824 -2.270775 0
M  V30 35 C 7.272297 -1.206712 -1.831478 0
M  V30 36 C 4.714342 -2.449402 2.822517 0
M  V30 37 C 3.716996 -2.535860 3.803798 0
M  V30 38 C 4.059002 -2.968189 5.208244 0
M  V30 39 F 5.073630 -3.872619 5.260946 0
M  V30 40 F 3.007968 -3.548218 5.853038 0
M  V30 41 F 4.442725 -1.921137 5.988151 0
M  V30 42 C 2.402553 -2.152204 3.475376 0
M  V30 43 C 1.060844 0.538202 0.128830 0
M  V30 44 O 2.191873 0.818908 -0.196009 0
M  V30 45 C -0.253551 1.057004 -0.309844 0
M  V30 46 O -0.576299 1.908523 -1.100500 0
M  V30 47 C -4.098466 -0.713100 -0.339343 0
M  V30 48 C -5.038705 -1.373174 0.466094 0
M  V30 49 C -5.732172 -2.449583 -0.047373 0
M  V30 50 N -5.552256 -2.928280 -1.290060 0
M  V30 51 C -4.640039 -2.332327 -2.069763 0
M  V30 52 C -4.453309 -2.856488 -3.340462 0
M  V30 53 C -3.519886 -2.328607 -4.236357 0
M  V30 54 C -2.748276 -1.242408 -3.856613 0
M  V30 55 O -1.793138 -0.625979 -4.614628 0
M  V30 56 C -1.595891 -1.123464 -5.932764 0
M  V30 57 C -2.928071 -0.696285 -2.581705 0
M  V30 58 C -3.870355 -1.218303 -1.657006 0
M  V30 59 H -7.769271 4.452830 0.472070 0
M  V30 60 H -7.449452 2.700463 0.947925 0
M  V30 61 H -6.095198 5.268299 1.947979 0
M  V30 62 H -5.505277 3.842011 3.834160 0
M  V30 63 H -6.508585 1.524708 2.464877 0
M  V30 64 H -5.827937 1.644223 4.052461 0
M  V30 65 H -2.419616 0.820754 3.222425 0
M  V30 66 H -3.577236 1.029758 4.488592 0
M  V30 67 H -1.949668 3.045827 3.332713 0
M  V30 68 H -3.237212 3.283905 4.515582 0
M  V30 69 H -3.593817 4.653857 2.410357 0
M  V30 70 H -2.468376 2.873034 0.964884 0
M  V30 71 H -3.984552 3.453323 0.284867 0
M  V30 72 H -5.112403 1.524794 0.622693 0
M  V30 73 H -2.979062 1.085623 -0.611435 0
M  V30 74 H -2.443920 -0.773996 1.644614 0
M  V30 75 H 0.073237 -1.691823 2.558429 0
M  V30 76 H 2.816458 -1.477583 0.183088 0
M  V30 77 H 4.516164 -0.210310 -0.217063 0
M  V30 78 H 4.890555 1.219218 -1.921071 0
M  V30 79 H 8.277460 0.650256 -4.511858 0
M  V30 80 H 7.576138 -2.097975 -1.286841 0
M  V30 81 H 5.745588 -2.710647 3.062479 0
M  V30 82 H 1.640832 -2.168381 4.254982 0
M  V30 83 H -5.237781 -1.069937 1.487830 0
M  V30 84 H -6.471716 -2.975444 0.549884 0
M  V30 85 H -5.053440 -3.711884 -3.644492 0
M  V30 86 H -3.426206 -2.794264 -5.211274 0
M  V30 87 H -0.815267 -0.519193 -6.404741 0
M  V30 88 H -2.505833 -1.021882 -6.533434 0
M  V30 89 H -1.247841 -2.161473 -5.913994 0
M  V30 90 H -2.305132 0.155936 -2.327687 0
M  V30 END ATOM
M  V30 BEGIN BOND
M  V30 1 2 1 2
M  V30 2 1 2 3
M  V30 3 1 3 4
M  V30 4 1 4 5
M  V30 5 1 5 6
M  V30 6 1 6 7
M  V30 7 1 7 8
M  V30 8 1 8 9
M  V30 9 1 9 10
M  V30 10 1 10 11
M  V30 11 1 11 12
M  V30 12 1 12 13
M  V30 13 2 13 14
M  V30 14 1 14 15
M  V30 15 1 15 16
M  V30 16 2 16 17
M  V30 17 1 17 18
M  V30 18 1 18 19
M  V30 19 2 19 20
M  V30 20 1 19 21
M  V30 21 1 21 22
M  V30 22 2 22 23
M  V30 23 1 23 24
M  V30 24 1 24 25
M  V30 25 1 25 26
M  V30 26 1 25 27
M  V30 27 1 25 28
M  V30 28 2 24 29
M  V30 29 1 29 30
M  V30 30 1 30 31
M  V30 31 1 31 32
M  V30 32 1 31 33
M  V30 33 1 31 34
M  V30 34 2 30 35
M  V30 35 2 18 36
M  V30 36 1 36 37
M  V30 37 1 37 38
M  V30 38 1 38 39
M  V30 39 1 38 40
M  V30 40 1 38 41
M  V30 41 2 37 42
M  V30 42 1 14 43
M  V30 43 2 43 44
M  V30 44 1 43 45
M  V30 45 2 45 46
M  V30 46 1 11 47
M  V30 47 2 47 48
M  V30 48 1 48 49
M  V30 49 2 49 50
M  V30 50 1 50 51
M  V30 51 2 51 52
M  V30 52 1 52 53
M  V30 53 2 53 54
M  V30 54 1 54 55
M  V30 55 1 55 56
M  V30 56 1 54 57
M  V30 57 2 57 58
M  V30 58 1 8 3
M  V30 59 1 45 13
M  V30 60 1 58 47
M  V30 61 1 10 5
M  V30 62 1 42 16
M  V30 63 1 58 51
M  V30 64 1 35 22
M  V30 65 1 1 59
M  V30 66 1 1 60
M  V30 67 1 2 61
M  V30 68 1 3 62 CFG=1
M  V30 69 1 4 63
M  V30 70 1 4 64
M  V30 71 1 6 65
M  V30 72 1 6 66
M  V30 73 1 7 67
M  V30 74 1 7 68
M  V30 75 1 8 69 CFG=3
M  V30 76 1 9 70
M  V30 77 1 9 71
M  V30 78 1 10 72 CFG=3
M  V30 79 1 11 73 CFG=3
M  V30 80 1 12 74
M  V30 81 1 15 75
M  V30 82 1 17 76
M  V30 83 1 21 77
M  V30 84 1 23 78
M  V30 85 1 29 79
M  V30 86 1 35 80
M  V30 87 1 36 81
M  V30 88 1 42 82
M  V30 89 1 48 83
M  V30 90 1 49 84
M  V30 91 1 52 85
M  V30 92 1 53 86
M  V30 93 1 56 87
M  V30 94 1 56 88
M  V30 95 1 56 89
M  V30 96 1 57 90
M  V30 END BOND
M  V30 END CTAB
M  END
>  <catalyst_id>  (1) 
VWNOSWNEHPUMDI_AWMUEAEQSA_NONE

>  <source_smiles>  (1) 
C=C[C@H]1CN2CC[C@H]1C[C@H]2[C@@H](Nc1c(Nc2cc(C(=O)Nc3cc(C(F)(F)F)cc(C(F)(F)F)c3)cc(C(F)(F)F)c2)c(=O)c1=O)c1ccnc2ccc(OC)cc12

>  <axial_configuration>  (1) 
none

>  <inchikey>  (1) 
VWNOSWNEHPUMDI-AWMUEAEQSA-N

>  <build_source>  (1) 
smiles

>  <rdkit_version>  (1) 
2025.09.6

>  <random_seed>  (1) 
42

>  <generated_at>  (1) 
2026-05-19T12:36:42

$$$$
