catalyst277
     RDKit          3D

  0  0  0  0  0  0  0  0  0  0999 V3000
M  V30 BEGIN CTAB
M  V30 COUNTS 64 69 0 0 0
M  V30 BEGIN ATOM
M  V30 1 C -6.055538 1.659558 -1.732267 0
M  V30 2 C -4.929079 1.241903 -1.140127 0
M  V30 3 C -3.788048 2.155076 -0.757014 0 CFG=1
M  V30 4 C -3.454106 2.064176 0.755385 0
M  V30 5 N -2.007396 1.811408 0.996650 0
M  V30 6 C -1.240563 2.897298 0.344951 0
M  V30 7 C -1.463014 2.934835 -1.173684 0
M  V30 8 C -2.498260 1.864508 -1.562939 0 CFG=1
M  V30 9 C -1.892940 0.510605 -1.150419 0
M  V30 10 C -1.668621 0.480749 0.382640 0 CFG=1
M  V30 11 C -0.256258 -0.048947 0.814064 0 CFG=2
M  V30 12 O 0.777553 0.549832 0.015862 0
M  V30 13 C 2.001355 0.713142 0.729887 0
M  V30 14 C 3.073704 1.092749 -0.263942 0
M  V30 15 C 3.159660 2.449363 -0.631320 0
M  V30 16 C 4.107042 2.882661 -1.550828 0
M  V30 17 C 4.979276 1.964867 -2.126671 0
M  V30 18 C 4.913254 0.602978 -1.798547 0
M  V30 19 C 5.799164 -0.303565 -2.404829 0
M  V30 20 C 5.753654 -1.663374 -2.105574 0
M  V30 21 C 4.819412 -2.134427 -1.194794 0
M  V30 22 C 3.932808 -1.244851 -0.581995 0
M  V30 23 C 3.952149 0.142805 -0.860675 0
M  V30 24 C -0.193330 -1.572604 0.700080 0
M  V30 25 C 0.303622 -2.151790 -0.476192 0
M  V30 26 C 0.368657 -3.525570 -0.571431 0
M  V30 27 N -0.028876 -4.360275 0.406479 0
M  V30 28 C -0.528854 -3.827407 1.531286 0
M  V30 29 C -0.949992 -4.701043 2.524352 0
M  V30 30 C -1.495240 -4.246048 3.724656 0
M  V30 31 C -1.625113 -2.886269 3.934203 0
M  V30 32 O -2.170831 -2.472780 5.111826 0
M  V30 33 C -1.210167 -1.979622 2.963829 0
M  V30 34 C -0.646824 -2.430355 1.742105 0
M  V30 35 H -6.843984 0.956083 -1.983262 0
M  V30 36 H -6.218884 2.702949 -1.983678 0
M  V30 37 H -4.825165 0.182421 -0.913104 0
M  V30 38 H -4.085506 3.192118 -0.969730 0
M  V30 39 H -3.738120 3.004027 1.247391 0
M  V30 40 H -4.047501 1.290851 1.260635 0
M  V30 41 H -1.537322 3.859877 0.781818 0
M  V30 42 H -0.174113 2.810606 0.573893 0
M  V30 43 H -0.516242 2.752503 -1.696309 0
M  V30 44 H -1.812937 3.928658 -1.477025 0
M  V30 45 H -2.685949 1.890483 -2.642202 0
M  V30 46 H -2.559291 -0.310094 -1.440237 0
M  V30 47 H -0.961669 0.357706 -1.706469 0
M  V30 48 H -2.397716 -0.225979 0.804425 0
M  V30 49 H -0.083515 0.240547 1.858078 0
M  V30 50 H 2.265385 -0.188548 1.290448 0
M  V30 51 H 1.880629 1.514665 1.469632 0
M  V30 52 H 2.473418 3.174838 -0.199026 0
M  V30 53 H 4.163214 3.932954 -1.823398 0
M  V30 54 H 5.712924 2.322714 -2.845937 0
M  V30 55 H 6.537231 0.046817 -3.123445 0
M  V30 56 H 6.445922 -2.350569 -2.584213 0
M  V30 57 H 4.775647 -3.193948 -0.955585 0
M  V30 58 H 3.220211 -1.665724 0.121345 0
M  V30 59 H 0.649233 -1.542388 -1.306915 0
M  V30 60 H 0.757111 -4.006638 -1.464607 0
M  V30 61 H -0.853951 -5.771510 2.356792 0
M  V30 62 H -1.818602 -4.953373 4.482620 0
M  V30 63 H -2.222804 -1.502670 5.116708 0
M  V30 64 H -1.335912 -0.918963 3.156349 0
M  V30 END ATOM
M  V30 BEGIN BOND
M  V30 1 2 1 2
M  V30 2 1 2 3
M  V30 3 1 3 4
M  V30 4 1 4 5
M  V30 5 1 5 6
M  V30 6 1 6 7
M  V30 7 1 7 8
M  V30 8 1 8 9
M  V30 9 1 9 10
M  V30 10 1 10 11
M  V30 11 1 11 12
M  V30 12 1 12 13
M  V30 13 1 13 14
M  V30 14 2 14 15
M  V30 15 1 15 16
M  V30 16 2 16 17
M  V30 17 1 17 18
M  V30 18 2 18 19
M  V30 19 1 19 20
M  V30 20 2 20 21
M  V30 21 1 21 22
M  V30 22 2 22 23
M  V30 23 1 11 24
M  V30 24 2 24 25
M  V30 25 1 25 26
M  V30 26 2 26 27
M  V30 27 1 27 28
M  V30 28 2 28 29
M  V30 29 1 29 30
M  V30 30 2 30 31
M  V30 31 1 31 32
M  V30 32 1 31 33
M  V30 33 2 33 34
M  V30 34 1 8 3
M  V30 35 1 23 14
M  V30 36 1 34 24
M  V30 37 1 10 5
M  V30 38 1 23 18
M  V30 39 1 34 28
M  V30 40 1 1 35
M  V30 41 1 1 36
M  V30 42 1 2 37
M  V30 43 1 3 38 CFG=1
M  V30 44 1 4 39
M  V30 45 1 4 40
M  V30 46 1 6 41
M  V30 47 1 6 42
M  V30 48 1 7 43
M  V30 49 1 7 44
M  V30 50 1 8 45 CFG=3
M  V30 51 1 9 46
M  V30 52 1 9 47
M  V30 53 1 10 48 CFG=1
M  V30 54 1 11 49 CFG=1
M  V30 55 1 13 50
M  V30 56 1 13 51
M  V30 57 1 15 52
M  V30 58 1 16 53
M  V30 59 1 17 54
M  V30 60 1 19 55
M  V30 61 1 20 56
M  V30 62 1 21 57
M  V30 63 1 22 58
M  V30 64 1 25 59
M  V30 65 1 26 60
M  V30 66 1 29 61
M  V30 67 1 30 62
M  V30 68 1 32 63
M  V30 69 1 33 64
M  V30 END BOND
M  V30 END CTAB
M  END
>  <catalyst_id>  (1) 
QLOHWTGSVUMFPG_ZHOVMQETSA_NONE

>  <source_smiles>  (1) 
C=C[C@H]1CN2CC[C@H]1C[C@H]2[C@H](OCc1cccc2ccccc12)c1ccnc2ccc(O)cc12

>  <axial_configuration>  (1) 
none

>  <inchikey>  (1) 
QLOHWTGSVUMFPG-ZHOVMQETSA-N

>  <build_source>  (1) 
smiles

>  <rdkit_version>  (1) 
2025.09.6

>  <random_seed>  (1) 
42

>  <generated_at>  (1) 
2026-05-19T12:33:44

$$$$
