catalyst96
     RDKit          3D

  0  0  0  0  0  0  0  0  0  0999 V3000
M  V30 BEGIN CTAB
M  V30 COUNTS 70 74 0 0 0
M  V30 BEGIN ATOM
M  V30 1 C -5.649328 4.117126 0.258662 0
M  V30 2 C -4.593422 3.301211 0.373947 0
M  V30 3 C -3.499230 3.187052 -0.661378 0 CFG=1
M  V30 4 C -2.095100 3.468763 -0.062435 0
M  V30 5 N -1.153907 2.334538 -0.276040 0
M  V30 6 C -1.015246 2.118386 -1.737432 0
M  V30 7 C -2.366049 1.839944 -2.413508 0
M  V30 8 C -3.472513 1.797144 -1.344201 0 CFG=1
M  V30 9 C -3.063070 0.699851 -0.344031 0
M  V30 10 C -1.759628 1.114296 0.374360 0 CFG=1
M  V30 11 C -0.722714 -0.066997 0.509551 0 CFG=1
M  V30 12 N 0.577559 0.523724 0.877080 0
M  V30 13 C 1.780745 -0.048665 0.573465 0
M  V30 14 N 1.959745 -1.307619 0.384158 0
M  V30 15 N 2.754207 0.911032 0.527921 0
M  V30 16 C 4.113352 0.768808 0.183625 0
M  V30 17 C 5.004262 1.800445 0.522958 0
M  V30 18 C 6.368644 1.743032 0.188505 0
M  V30 19 C 7.294812 2.872189 0.567830 0
M  V30 20 F 7.347856 3.838507 -0.389239 0
M  V30 21 F 6.923340 3.503740 1.716430 0
M  V30 22 F 8.579814 2.467175 0.764849 0
M  V30 23 C 6.842249 0.640282 -0.534848 0
M  V30 24 C 5.971940 -0.389174 -0.919481 0
M  V30 25 C 6.474118 -1.585914 -1.690415 0
M  V30 26 F 7.638909 -1.335187 -2.354917 0
M  V30 27 F 6.729841 -2.654919 -0.888253 0
M  V30 28 F 5.599548 -2.021442 -2.638775 0
M  V30 29 C 4.616853 -0.308445 -0.553576 0
M  V30 30 C -1.168685 -1.084887 1.553573 0
M  V30 31 C -1.058907 -0.743908 2.911419 0
M  V30 32 C -1.488651 -1.639463 3.866985 0
M  V30 33 N -2.025847 -2.837112 3.574979 0
M  V30 34 C -2.128031 -3.188467 2.285504 0
M  V30 35 C -2.671087 -4.433811 2.006425 0
M  V30 36 C -2.823903 -4.906030 0.699956 0
M  V30 37 C -2.420475 -4.115152 -0.364011 0
M  V30 38 O -2.506857 -4.438064 -1.688995 0
M  V30 39 C -2.987639 -5.739861 -2.003098 0
M  V30 40 C -1.871415 -2.855994 -0.102696 0
M  V30 41 C -1.714574 -2.357858 1.216696 0
M  V30 42 H -5.789605 4.756619 -0.607487 0
M  V30 43 H -6.405847 4.159513 1.036936 0
M  V30 44 H -4.510898 2.686211 1.268201 0
M  V30 45 H -3.680752 3.938490 -1.443327 0
M  V30 46 H -2.147365 3.698204 1.009820 0
M  V30 47 H -1.674325 4.371035 -0.525907 0
M  V30 48 H -0.319497 1.294710 -1.934979 0
M  V30 49 H -0.548636 3.001064 -2.192771 0
M  V30 50 H -2.584941 2.619327 -3.153136 0
M  V30 51 H -2.323490 0.886196 -2.953060 0
M  V30 52 H -4.437903 1.559672 -1.804972 0
M  V30 53 H -3.857133 0.533084 0.392692 0
M  V30 54 H -2.938529 -0.241522 -0.889477 0
M  V30 55 H -2.023410 1.418388 1.397913 0
M  V30 56 H -0.595054 -0.526116 -0.474315 0
M  V30 57 H 0.543903 1.503281 0.582036 0
M  V30 58 H 1.090603 -1.815714 0.542407 0
M  V30 59 H 2.576842 1.689799 1.146104 0
M  V30 60 H 4.637220 2.668563 1.069930 0
M  V30 61 H 7.897481 0.584983 -0.807045 0
M  V30 62 H 3.950822 -1.111590 -0.866073 0
M  V30 63 H -0.633191 0.205673 3.222197 0
M  V30 64 H -1.411425 -1.410556 4.925959 0
M  V30 65 H -2.985733 -5.062715 2.837095 0
M  V30 66 H -3.257601 -5.890097 0.559642 0
M  V30 67 H -4.026065 -5.864253 -1.678884 0
M  V30 68 H -2.962858 -5.851552 -3.091351 0
M  V30 69 H -2.343193 -6.514076 -1.573567 0
M  V30 70 H -1.560937 -2.274898 -0.966129 0
M  V30 END ATOM
M  V30 BEGIN BOND
M  V30 1 2 1 2
M  V30 2 1 2 3
M  V30 3 1 3 4
M  V30 4 1 4 5
M  V30 5 1 5 6
M  V30 6 1 6 7
M  V30 7 1 7 8
M  V30 8 1 8 9
M  V30 9 1 9 10
M  V30 10 1 10 11
M  V30 11 1 11 12
M  V30 12 1 12 13
M  V30 13 2 13 14
M  V30 14 1 13 15
M  V30 15 1 15 16
M  V30 16 2 16 17
M  V30 17 1 17 18
M  V30 18 1 18 19
M  V30 19 1 19 20
M  V30 20 1 19 21
M  V30 21 1 19 22
M  V30 22 2 18 23
M  V30 23 1 23 24
M  V30 24 1 24 25
M  V30 25 1 25 26
M  V30 26 1 25 27
M  V30 27 1 25 28
M  V30 28 2 24 29
M  V30 29 1 11 30
M  V30 30 2 30 31
M  V30 31 1 31 32
M  V30 32 2 32 33
M  V30 33 1 33 34
M  V30 34 2 34 35
M  V30 35 1 35 36
M  V30 36 2 36 37
M  V30 37 1 37 38
M  V30 38 1 38 39
M  V30 39 1 37 40
M  V30 40 2 40 41
M  V30 41 1 8 3
M  V30 42 1 29 16
M  V30 43 1 41 30
M  V30 44 1 10 5
M  V30 45 1 41 34
M  V30 46 1 1 42
M  V30 47 1 1 43
M  V30 48 1 2 44
M  V30 49 1 3 45 CFG=3
M  V30 50 1 4 46
M  V30 51 1 4 47
M  V30 52 1 6 48
M  V30 53 1 6 49
M  V30 54 1 7 50
M  V30 55 1 7 51
M  V30 56 1 8 52 CFG=3
M  V30 57 1 9 53
M  V30 58 1 9 54
M  V30 59 1 10 55 CFG=1
M  V30 60 1 11 56 CFG=3
M  V30 61 1 12 57
M  V30 62 1 14 58
M  V30 63 1 15 59
M  V30 64 1 17 60
M  V30 65 1 23 61
M  V30 66 1 29 62
M  V30 67 1 31 63
M  V30 68 1 32 64
M  V30 69 1 35 65
M  V30 70 1 36 66
M  V30 71 1 39 67
M  V30 72 1 39 68
M  V30 73 1 39 69
M  V30 74 1 40 70
M  V30 END BOND
M  V30 END CTAB
M  END
>  <catalyst_id>  (1) 
HUXMPTCTDBUQFI_FRSFCCSCSA_NONE

>  <source_smiles>  (1) 
C=C[C@H]1CN2CC[C@H]1C[C@H]2[C@@H](NC(=N)Nc1cc(C(F)(F)F)cc(C(F)(F)F)c1)c1ccnc2ccc(OC)cc12

>  <axial_configuration>  (1) 
none

>  <inchikey>  (1) 
HUXMPTCTDBUQFI-FRSFCCSCSA-N

>  <build_source>  (1) 
smiles

>  <rdkit_version>  (1) 
2025.09.6

>  <random_seed>  (1) 
42

>  <generated_at>  (1) 
2026-05-19T12:32:55

$$$$
