catalyst375
     RDKit          3D

  0  0  0  0  0  0  0  0  0  0999 V3000
M  V30 BEGIN CTAB
M  V30 COUNTS 64 66 0 0 0
M  V30 BEGIN ATOM
M  V30 1 C -0.662780 3.320232 2.015135 0
M  V30 2 C 0.451044 2.263538 2.142455 0
M  V30 3 C 1.803620 3.017748 2.137935 0
M  V30 4 C 0.321879 1.592946 3.527192 0
M  V30 5 C 0.442680 1.180359 0.987114 0 CFG=1
M  V30 6 C -0.611699 0.043191 1.086672 0
M  V30 7 P -2.381098 0.457493 0.789550 0
M  V30 8 C -3.281848 -1.118524 1.008716 0
M  V30 9 C -2.685736 -2.315341 1.428730 0
M  V30 10 C -3.442686 -3.482701 1.579008 0
M  V30 11 C -4.809540 -3.471587 1.317205 0
M  V30 12 C -5.422201 -2.292987 0.905206 0
M  V30 13 C -4.665254 -1.127861 0.754801 0
M  V30 14 C -2.457436 0.623467 -1.025481 0
M  V30 15 C -2.090678 -0.409866 -1.899738 0
M  V30 16 C -2.127072 -0.222133 -3.283276 0
M  V30 17 C -2.537116 0.999402 -3.810918 0
M  V30 18 C -2.918885 2.030919 -2.956731 0
M  V30 19 C -2.883701 1.843183 -1.572984 0
M  V30 20 N 0.441782 1.788665 -0.360241 0
M  V30 21 C 1.501437 2.225888 -1.082401 0
M  V30 22 S 1.324999 3.571056 -2.053833 0
M  V30 23 N 2.713429 1.627194 -0.978130 0
M  V30 24 C 3.000708 0.245907 -1.003970 0
M  V30 25 C 4.321924 -0.148798 -0.779748 0
M  V30 26 C 4.682980 -1.506233 -0.806195 0
M  V30 27 C 6.105736 -1.922347 -0.517361 0
M  V30 28 F 6.464717 -3.068802 -1.157753 0
M  V30 29 F 7.021177 -0.985055 -0.887718 0
M  V30 30 F 6.314537 -2.149921 0.807724 0
M  V30 31 C 3.693320 -2.469390 -1.063173 0
M  V30 32 C 2.369000 -2.086946 -1.323445 0
M  V30 33 C 1.291416 -3.105877 -1.604801 0
M  V30 34 F 1.768955 -4.372180 -1.752536 0
M  V30 35 F 0.590521 -2.833989 -2.739101 0
M  V30 36 F 0.372305 -3.167659 -0.601008 0
M  V30 37 C 2.040495 -0.722480 -1.301454 0
M  V30 38 H -1.657739 2.891739 2.151382 0
M  V30 39 H -0.551949 4.094160 2.784671 0
M  V30 40 H -0.637239 3.829693 1.047068 0
M  V30 41 H 2.647916 2.321151 2.186557 0
M  V30 42 H 1.922853 3.637788 1.245442 0
M  V30 43 H 1.885103 3.689788 3.000617 0
M  V30 44 H -0.669310 1.152669 3.676144 0
M  V30 45 H 1.071398 0.804003 3.654919 0
M  V30 46 H 0.467323 2.319745 4.335180 0
M  V30 47 H 1.402940 0.663135 1.097726 0
M  V30 48 H -0.324449 -0.745856 0.383989 0
M  V30 49 H -0.528675 -0.414297 2.077673 0
M  V30 50 H -1.623412 -2.377891 1.641511 0
M  V30 51 H -2.959977 -4.402282 1.900141 0
M  V30 52 H -5.395386 -4.379321 1.433384 0
M  V30 53 H -6.488854 -2.275837 0.697958 0
M  V30 54 H -5.171251 -0.220667 0.428478 0
M  V30 55 H -1.773690 -1.377403 -1.517412 0
M  V30 56 H -1.835358 -1.032214 -3.946992 0
M  V30 57 H -2.562386 1.146599 -4.887424 0
M  V30 58 H -3.241776 2.984291 -3.367034 0
M  V30 59 H -3.186813 2.665116 -0.927436 0
M  V30 60 H -0.402896 2.304985 -0.581714 0
M  V30 61 H 3.485047 2.224359 -1.258242 0
M  V30 62 H 5.082921 0.600141 -0.562384 0
M  V30 63 H 3.962057 -3.527411 -1.070508 0
M  V30 64 H 1.022670 -0.426692 -1.549144 0
M  V30 END ATOM
M  V30 BEGIN BOND
M  V30 1 1 1 2
M  V30 2 1 2 3
M  V30 3 1 2 4
M  V30 4 1 2 5
M  V30 5 1 5 6
M  V30 6 1 6 7
M  V30 7 1 7 8
M  V30 8 2 8 9
M  V30 9 1 9 10
M  V30 10 2 10 11
M  V30 11 1 11 12
M  V30 12 2 12 13
M  V30 13 1 7 14
M  V30 14 2 14 15
M  V30 15 1 15 16
M  V30 16 2 16 17
M  V30 17 1 17 18
M  V30 18 2 18 19
M  V30 19 1 5 20
M  V30 20 1 20 21
M  V30 21 2 21 22
M  V30 22 1 21 23
M  V30 23 1 23 24
M  V30 24 2 24 25
M  V30 25 1 25 26
M  V30 26 1 26 27
M  V30 27 1 27 28
M  V30 28 1 27 29
M  V30 29 1 27 30
M  V30 30 2 26 31
M  V30 31 1 31 32
M  V30 32 1 32 33
M  V30 33 1 33 34
M  V30 34 1 33 35
M  V30 35 1 33 36
M  V30 36 2 32 37
M  V30 37 1 13 8
M  V30 38 1 19 14
M  V30 39 1 37 24
M  V30 40 1 1 38
M  V30 41 1 1 39
M  V30 42 1 1 40
M  V30 43 1 3 41
M  V30 44 1 3 42
M  V30 45 1 3 43
M  V30 46 1 4 44
M  V30 47 1 4 45
M  V30 48 1 4 46
M  V30 49 1 5 47 CFG=3
M  V30 50 1 6 48
M  V30 51 1 6 49
M  V30 52 1 9 50
M  V30 53 1 10 51
M  V30 54 1 11 52
M  V30 55 1 12 53
M  V30 56 1 13 54
M  V30 57 1 15 55
M  V30 58 1 16 56
M  V30 59 1 17 57
M  V30 60 1 18 58
M  V30 61 1 19 59
M  V30 62 1 20 60
M  V30 63 1 23 61
M  V30 64 1 25 62
M  V30 65 1 31 63
M  V30 66 1 37 64
M  V30 END BOND
M  V30 END CTAB
M  END
>  <catalyst_id>  (1) 
VYRDIGBWGSWZDW_HSZRJFAPSA_NONE

>  <source_smiles>  (1) 
CC(C)(C)[C@@H](CP(c1ccccc1)c1ccccc1)NC(=S)Nc1cc(C(F)(F)F)cc(C(F)(F)F)c1

>  <axial_configuration>  (1) 
none

>  <inchikey>  (1) 
VYRDIGBWGSWZDW-HSZRJFAPSA-N

>  <build_source>  (1) 
smiles

>  <rdkit_version>  (1) 
2025.09.6

>  <random_seed>  (1) 
42

>  <generated_at>  (1) 
2026-05-19T12:33:42

$$$$
