catalyst98
     RDKit          3D

  0  0  0  0  0  0  0  0  0  0999 V3000
M  V30 BEGIN CTAB
M  V30 COUNTS 67 72 0 0 0
M  V30 BEGIN ATOM
M  V30 1 C -5.938958 -2.553420 0.477231 0
M  V30 2 C -4.813626 -1.847400 0.306546 0
M  V30 3 C -3.732884 -2.208032 -0.685735 0 CFG=1
M  V30 4 C -3.445009 -1.050036 -1.677446 0
M  V30 5 N -1.996908 -0.713020 -1.741272 0
M  V30 6 C -1.260550 -1.937977 -2.126801 0
M  V30 7 C -1.436191 -3.067907 -1.102343 0
M  V30 8 C -2.404288 -2.607495 0.002032 0 CFG=1
M  V30 9 C -1.747109 -1.384710 0.667235 0
M  V30 10 C -1.576562 -0.249319 -0.373486 0 CFG=1
M  V30 11 C -0.158211 0.421113 -0.364040 0 CFG=2
M  V30 12 O 0.875673 -0.575894 -0.318002 0
M  V30 13 C 2.061269 -0.172318 -1.000518 0
M  V30 14 C 3.153010 -1.160044 -0.662346 0
M  V30 15 C 3.188196 -2.358312 -1.401041 0
M  V30 16 C 4.149599 -3.328337 -1.145071 0
M  V30 17 C 5.087317 -3.121170 -0.138842 0
M  V30 18 C 5.073881 -1.947907 0.629309 0
M  V30 19 C 6.025930 -1.770667 1.647365 0
M  V30 20 C 6.034029 -0.619934 2.432514 0
M  V30 21 C 5.087927 0.369603 2.209082 0
M  V30 22 C 4.135762 0.208759 1.198910 0
M  V30 23 C 4.099342 -0.946023 0.381115 0
M  V30 24 C -0.020567 1.377229 0.821984 0
M  V30 25 C 0.553905 0.911857 2.013545 0
M  V30 26 C 0.686876 1.779091 3.076696 0
M  V30 27 N 0.285888 3.063135 3.044995 0
M  V30 28 C -0.287640 3.520615 1.921838 0
M  V30 29 C -0.711215 4.839838 1.908345 0
M  V30 30 C -1.330817 5.403086 0.791629 0
M  V30 31 C -1.544122 4.640073 -0.348765 0
M  V30 32 O -2.168285 5.297139 -1.371115 0
M  V30 33 C -2.453408 4.548271 -2.546425 0
M  V30 34 C -1.119560 3.310984 -0.358960 0
M  V30 35 C -0.480142 2.724264 0.767346 0
M  V30 36 H -6.682519 -2.244308 1.205972 0
M  V30 37 H -6.145433 -3.451635 -0.096459 0
M  V30 38 H -4.664713 -0.955182 0.912061 0
M  V30 39 H -4.074572 -3.071873 -1.274128 0
M  V30 40 H -4.018105 -0.146661 -1.430649 0
M  V30 41 H -3.788395 -1.336617 -2.680445 0
M  V30 42 H -0.199072 -1.720898 -2.279487 0
M  V30 43 H -1.614960 -2.276934 -3.109138 0
M  V30 44 H -0.465365 -3.333960 -0.667062 0
M  V30 45 H -1.825057 -3.965766 -1.597094 0
M  V30 46 H -2.557085 -3.409042 0.733387 0
M  V30 47 H -2.360798 -1.028229 1.502635 0
M  V30 48 H -0.789963 -1.692706 1.101871 0
M  V30 49 H -2.287779 0.545579 -0.106672 0
M  V30 50 H -0.037222 0.985942 -1.296747 0
M  V30 51 H 1.873619 -0.182555 -2.081686 0
M  V30 52 H 2.345233 0.852917 -0.745079 0
M  V30 53 H 2.451059 -2.538643 -2.180937 0
M  V30 54 H 4.165942 -4.247359 -1.724451 0
M  V30 55 H 5.831023 -3.892895 0.048137 0
M  V30 56 H 6.774374 -2.536831 1.839034 0
M  V30 57 H 6.777126 -0.499537 3.216009 0
M  V30 58 H 5.085652 1.270648 2.817215 0
M  V30 59 H 3.416699 1.012049 1.067275 0
M  V30 60 H 0.906621 -0.111246 2.112094 0
M  V30 61 H 1.136063 1.454392 4.010928 0
M  V30 62 H -0.558914 5.450070 2.795730 0
M  V30 63 H -1.651841 6.441290 0.820409 0
M  V30 64 H -2.966703 5.211747 -3.249062 0
M  V30 65 H -3.124306 3.710660 -2.328364 0
M  V30 66 H -1.531832 4.203345 -3.026718 0
M  V30 67 H -1.291326 2.709103 -1.244086 0
M  V30 END ATOM
M  V30 BEGIN BOND
M  V30 1 2 1 2
M  V30 2 1 2 3
M  V30 3 1 3 4
M  V30 4 1 4 5
M  V30 5 1 5 6
M  V30 6 1 6 7
M  V30 7 1 7 8
M  V30 8 1 8 9
M  V30 9 1 9 10
M  V30 10 1 10 11
M  V30 11 1 11 12
M  V30 12 1 12 13
M  V30 13 1 13 14
M  V30 14 2 14 15
M  V30 15 1 15 16
M  V30 16 2 16 17
M  V30 17 1 17 18
M  V30 18 2 18 19
M  V30 19 1 19 20
M  V30 20 2 20 21
M  V30 21 1 21 22
M  V30 22 2 22 23
M  V30 23 1 11 24
M  V30 24 2 24 25
M  V30 25 1 25 26
M  V30 26 2 26 27
M  V30 27 1 27 28
M  V30 28 2 28 29
M  V30 29 1 29 30
M  V30 30 2 30 31
M  V30 31 1 31 32
M  V30 32 1 32 33
M  V30 33 1 31 34
M  V30 34 2 34 35
M  V30 35 1 8 3
M  V30 36 1 23 14
M  V30 37 1 35 24
M  V30 38 1 10 5
M  V30 39 1 23 18
M  V30 40 1 35 28
M  V30 41 1 1 36
M  V30 42 1 1 37
M  V30 43 1 2 38
M  V30 44 1 3 39 CFG=3
M  V30 45 1 4 40
M  V30 46 1 4 41
M  V30 47 1 6 42
M  V30 48 1 6 43
M  V30 49 1 7 44
M  V30 50 1 7 45
M  V30 51 1 8 46 CFG=1
M  V30 52 1 9 47
M  V30 53 1 9 48
M  V30 54 1 10 49 CFG=1
M  V30 55 1 11 50 CFG=3
M  V30 56 1 13 51
M  V30 57 1 13 52
M  V30 58 1 15 53
M  V30 59 1 16 54
M  V30 60 1 17 55
M  V30 61 1 19 56
M  V30 62 1 20 57
M  V30 63 1 21 58
M  V30 64 1 22 59
M  V30 65 1 25 60
M  V30 66 1 26 61
M  V30 67 1 29 62
M  V30 68 1 30 63
M  V30 69 1 33 64
M  V30 70 1 33 65
M  V30 71 1 33 66
M  V30 72 1 34 67
M  V30 END BOND
M  V30 END CTAB
M  END
>  <catalyst_id>  (1) 
HXAOSNZSMBSTFX_VFIDHFNZSA_NONE

>  <source_smiles>  (1) 
C=C[C@H]1CN2CC[C@H]1C[C@H]2[C@H](OCc1cccc2ccccc12)c1ccnc2ccc(OC)cc12

>  <axial_configuration>  (1) 
none

>  <inchikey>  (1) 
HXAOSNZSMBSTFX-VFIDHFNZSA-N

>  <build_source>  (1) 
smiles

>  <rdkit_version>  (1) 
2025.09.6

>  <random_seed>  (1) 
42

>  <generated_at>  (1) 
2026-05-19T12:36:59

$$$$
