catalyst141
     RDKit          3D

  0  0  0  0  0  0  0  0  0  0999 V3000
M  V30 BEGIN CTAB
M  V30 COUNTS 87 92 0 0 0
M  V30 BEGIN ATOM
M  V30 1 C 7.613984 3.853996 -0.159495 0
M  V30 2 C 6.471111 2.885922 -0.214416 0
M  V30 3 C 6.027390 2.382770 -1.438442 0
M  V30 4 C 4.971406 1.456484 -1.505265 0
M  V30 5 C 4.514208 0.984886 -2.862907 0
M  V30 6 C 4.328197 1.019950 -0.317054 0
M  V30 7 C 3.229634 0.007906 -0.387483 0
M  V30 8 C 3.612847 -1.336767 -0.188644 0
M  V30 9 C 2.710446 -2.393083 -0.278770 0
M  V30 10 C 3.147895 -3.712220 -0.058731 0
M  V30 11 C 2.270624 -4.788091 -0.164163 0
M  V30 12 C 0.946226 -4.555777 -0.499299 0
M  V30 13 C 0.507064 -3.247327 -0.719384 0
M  V30 14 C 1.370336 -2.123862 -0.608087 0
M  V30 15 C 0.960029 -0.751948 -0.817130 0
M  V30 16 C -0.478977 -0.509784 -1.204459 0
M  V30 17 C -1.487364 -0.371207 -0.196758 0
M  V30 18 C -1.063169 -0.172182 1.250382 0
M  V30 19 N -1.051356 1.258123 1.875243 0 CHG=1
M  V30 20 C -2.062814 1.360224 2.987711 0
M  V30 21 C -1.314270 2.344872 0.845887 0
M  V30 22 C 0.338807 1.508161 2.451195 0
M  V30 23 C -2.854604 -0.461681 -0.571822 0
M  V30 24 C -3.972326 -0.521043 0.400938 0
M  V30 25 C -4.889061 0.552142 0.544734 0
M  V30 26 C -4.891763 1.772034 -0.344401 0
M  V30 27 C -5.915149 0.473998 1.506286 0
M  V30 28 C -6.058095 -0.643403 2.329557 0
M  V30 29 C -7.176021 -0.717163 3.327316 0
M  V30 30 C -5.205138 -1.730531 2.139558 0
M  V30 31 C -4.188325 -1.698086 1.168701 0
M  V30 32 C -3.366963 -2.951722 0.973368 0
M  V30 33 C -3.180672 -0.582954 -1.936476 0
M  V30 34 C -2.208982 -0.611791 -2.941319 0
M  V30 35 C -2.593235 -0.704691 -4.291352 0
M  V30 36 C -1.641477 -0.756858 -5.307541 0
M  V30 37 C -0.293450 -0.717307 -4.984544 0
M  V30 38 C 0.096508 -0.630562 -3.646464 0
M  V30 39 C -0.843709 -0.576812 -2.589168 0
M  V30 40 C 1.874105 0.355664 -0.690013 0
M  V30 41 O 1.500095 1.571969 -0.846433 0 CHG=-1
M  V30 42 C 4.804332 1.507820 0.926656 0
M  V30 43 C 4.167988 1.124940 2.234991 0
M  V30 44 C 5.861758 2.437053 0.959145 0
M  V30 45 H 7.635616 4.485229 -1.054127 0
M  V30 46 H 8.561232 3.310871 -0.086771 0
M  V30 47 H 7.521192 4.520499 0.704473 0
M  V30 48 H 6.498091 2.721402 -2.358783 0
M  V30 49 H 3.558178 1.446616 -3.126449 0
M  V30 50 H 5.238303 1.254430 -3.639766 0
M  V30 51 H 4.418616 -0.104954 -2.891154 0
M  V30 52 H 4.660272 -1.540685 0.029564 0
M  V30 53 H 4.189248 -3.907570 0.188969 0
M  V30 54 H 2.627097 -5.800743 -0.000043 0
M  V30 55 H 0.254027 -5.386042 -0.605890 0
M  V30 56 H -0.533575 -3.111987 -1.004496 0
M  V30 57 H -0.075357 -0.605291 1.435910 0
M  V30 58 H -1.703384 -0.772821 1.902805 0
M  V30 59 H -3.060181 1.197006 2.580560 0
M  V30 60 H -1.832253 0.604626 3.745124 0
M  V30 61 H -2.001297 2.360793 3.427327 0
M  V30 62 H -0.700278 2.204958 -0.034382 0
M  V30 63 H -2.368490 2.313671 0.577963 0
M  V30 64 H -1.099300 3.316012 1.303804 0
M  V30 65 H 0.350466 2.498103 2.918406 0
M  V30 66 H 1.078833 1.461506 1.661890 0
M  V30 67 H 0.541049 0.742750 3.207411 0
M  V30 68 H -5.706671 1.693084 -1.071600 0
M  V30 69 H -5.039442 2.676617 0.255857 0
M  V30 70 H -3.960741 1.908783 -0.897627 0
M  V30 71 H -6.623815 1.296774 1.599109 0
M  V30 72 H -8.069523 -1.140710 2.858490 0
M  V30 73 H -6.894935 -1.340518 4.182687 0
M  V30 74 H -7.417487 0.277499 3.716664 0
M  V30 75 H -5.352090 -2.631337 2.734512 0
M  V30 76 H -3.901950 -3.831799 1.347749 0
M  V30 77 H -2.417887 -2.883008 1.511080 0
M  V30 78 H -3.174661 -3.139040 -0.087572 0
M  V30 79 H -4.231144 -0.661647 -2.217916 0
M  V30 80 H -3.645680 -0.735953 -4.563888 0
M  V30 81 H -1.951597 -0.821863 -6.346294 0
M  V30 82 H 0.462998 -0.743500 -5.763756 0
M  V30 83 H 1.162866 -0.575067 -3.426625 0
M  V30 84 H 4.883549 1.223757 3.059102 0
M  V30 85 H 3.830491 0.085570 2.247426 0
M  V30 86 H 3.320025 1.783772 2.440487 0
M  V30 87 H 6.206327 2.821225 1.916734 0
M  V30 END ATOM
M  V30 BEGIN BOND
M  V30 1 1 1 2
M  V30 2 2 2 3
M  V30 3 1 3 4
M  V30 4 1 4 5
M  V30 5 2 4 6
M  V30 6 1 6 7
M  V30 7 2 7 8
M  V30 8 1 8 9
M  V30 9 2 9 10
M  V30 10 1 10 11
M  V30 11 2 11 12
M  V30 12 1 12 13
M  V30 13 2 13 14
M  V30 14 1 14 15
M  V30 15 1 15 16
M  V30 16 2 16 17
M  V30 17 1 17 18
M  V30 18 1 18 19
M  V30 19 1 19 20
M  V30 20 1 19 21
M  V30 21 1 19 22
M  V30 22 1 17 23
M  V30 23 1 23 24
M  V30 24 2 24 25
M  V30 25 1 25 26
M  V30 26 1 25 27
M  V30 27 2 27 28
M  V30 28 1 28 29
M  V30 29 1 28 30
M  V30 30 2 30 31
M  V30 31 1 31 32
M  V30 32 2 23 33
M  V30 33 1 33 34
M  V30 34 2 34 35
M  V30 35 1 35 36
M  V30 36 2 36 37
M  V30 37 1 37 38
M  V30 38 2 38 39
M  V30 39 2 15 40
M  V30 40 1 40 41
M  V30 41 1 6 42
M  V30 42 1 42 43
M  V30 43 2 42 44
M  V30 44 1 44 2
M  V30 45 1 40 7
M  V30 46 1 14 9
M  V30 47 1 39 16
M  V30 48 1 31 24
M  V30 49 1 39 34
M  V30 50 1 1 45
M  V30 51 1 1 46
M  V30 52 1 1 47
M  V30 53 1 3 48
M  V30 54 1 5 49
M  V30 55 1 5 50
M  V30 56 1 5 51
M  V30 57 1 8 52
M  V30 58 1 10 53
M  V30 59 1 11 54
M  V30 60 1 12 55
M  V30 61 1 13 56
M  V30 62 1 18 57
M  V30 63 1 18 58
M  V30 64 1 20 59
M  V30 65 1 20 60
M  V30 66 1 20 61
M  V30 67 1 21 62
M  V30 68 1 21 63
M  V30 69 1 21 64
M  V30 70 1 22 65
M  V30 71 1 22 66
M  V30 72 1 22 67
M  V30 73 1 26 68
M  V30 74 1 26 69
M  V30 75 1 26 70
M  V30 76 1 27 71
M  V30 77 1 29 72
M  V30 78 1 29 73
M  V30 79 1 29 74
M  V30 80 1 30 75
M  V30 81 1 32 76
M  V30 82 1 32 77
M  V30 83 1 32 78
M  V30 84 1 33 79
M  V30 85 1 35 80
M  V30 86 1 36 81
M  V30 87 1 37 82
M  V30 88 1 38 83
M  V30 89 1 43 84
M  V30 90 1 43 85
M  V30 91 1 43 86
M  V30 92 1 44 87
M  V30 END BOND
M  V30 END CTAB
M  END
>  <catalyst_id>  (1) 
JTPTWQLLNWXREG_UHFFFAOYSA_R

>  <source_smiles>  (1) 
Cc1cc(C)c(-c2cc3ccccc3c(-c3c(C[N+](C)(C)C)c(-c4c(C)cc(C)cc4C)cc4ccccc34)c2[O-])c(C)c1

>  <axial_configuration>  (1) 
R

>  <inchikey>  (1) 
JTPTWQLLNWXREG-UHFFFAOYSA-N

>  <build_source>  (1) 
smiles+axial_free

>  <final_biaryl_angle_deg>  (1) 
95.00

>  <rdkit_version>  (1) 
2025.09.6

>  <random_seed>  (1) 
42

>  <generated_at>  (1) 
2026-05-19T12:34:17

$$$$
