catalyst169
     RDKit          3D

  0  0  0  0  0  0  0  0  0  0999 V3000
M  V30 BEGIN CTAB
M  V30 COUNTS 48 50 0 0 0
M  V30 BEGIN ATOM
M  V30 1 O 4.044480 5.080566 -0.102238 0
M  V30 2 N 4.805997 4.112955 0.036933 0 CHG=1
M  V30 3 O 6.035966 4.197103 0.161089 0 CHG=-1
M  V30 4 C 4.207906 2.772310 0.059902 0
M  V30 5 C 2.826749 2.623298 -0.107760 0
M  V30 6 C 2.260146 1.343116 -0.084919 0
M  V30 7 C 3.057780 0.212792 0.118433 0
M  V30 8 N 2.567392 -1.107943 0.128961 0
M  V30 9 C 1.301430 -1.620583 0.233681 0
M  V30 10 S 1.094416 -3.190531 -0.297667 0
M  V30 11 N 0.361289 -0.809632 0.800358 0
M  V30 12 C -1.063072 -1.052722 1.108109 0 CFG=2
M  V30 13 C -1.228053 -2.126865 2.198418 0
M  V30 14 C -2.682517 -2.289218 2.623156 0
M  V30 15 C -3.572088 -2.588576 1.425005 0
M  V30 16 C -3.458255 -1.498827 0.363203 0
M  V30 17 C -2.003123 -1.292080 -0.123074 0 CFG=1
M  V30 18 N -2.060061 -0.260566 -1.176019 0
M  V30 19 C -1.034203 -0.357257 -2.206173 0
M  V30 20 C -1.268504 0.901625 -3.028803 0
M  V30 21 C -1.947838 1.882144 -2.077877 0
M  V30 22 C -2.085564 1.134045 -0.758654 0
M  V30 23 C 4.443510 0.375779 0.255274 0
M  V30 24 C 5.022505 1.649258 0.236780 0
M  V30 25 H 2.181307 3.483918 -0.273587 0
M  V30 26 H 1.196352 1.258202 -0.282623 0
M  V30 27 H 3.254298 -1.832157 -0.060124 0
M  V30 28 H 0.769715 -0.082846 1.371331 0
M  V30 29 H -1.386326 -0.111771 1.575168 0
M  V30 30 H -0.860998 -3.098064 1.854183 0
M  V30 31 H -0.622877 -1.861634 3.074237 0
M  V30 32 H -2.763864 -3.100570 3.355274 0
M  V30 33 H -3.026340 -1.374087 3.120489 0
M  V30 34 H -3.295586 -3.556864 0.990269 0
M  V30 35 H -4.614184 -2.671738 1.753885 0
M  V30 36 H -4.100455 -1.767904 -0.485455 0
M  V30 37 H -3.858389 -0.564735 0.778324 0
M  V30 38 H -1.718410 -2.236686 -0.601612 0
M  V30 39 H -1.142039 -1.257112 -2.819767 0
M  V30 40 H -0.022132 -0.331571 -1.796823 0
M  V30 41 H -1.928151 0.693211 -3.879402 0
M  V30 42 H -0.329913 1.304353 -3.423053 0
M  V30 43 H -1.362698 2.799764 -1.958312 0
M  V30 44 H -2.931985 2.160234 -2.472936 0
M  V30 45 H -3.012993 1.407480 -0.246888 0
M  V30 46 H -1.241219 1.394605 -0.112180 0
M  V30 47 H 5.090790 -0.488113 0.394872 0
M  V30 48 H 6.099808 1.743893 0.358611 0
M  V30 END ATOM
M  V30 BEGIN BOND
M  V30 1 2 1 2
M  V30 2 1 2 3
M  V30 3 1 2 4
M  V30 4 2 4 5
M  V30 5 1 5 6
M  V30 6 2 6 7
M  V30 7 1 7 8
M  V30 8 1 8 9
M  V30 9 2 9 10
M  V30 10 1 9 11
M  V30 11 1 11 12
M  V30 12 1 12 13
M  V30 13 1 13 14
M  V30 14 1 14 15
M  V30 15 1 15 16
M  V30 16 1 16 17
M  V30 17 1 17 18
M  V30 18 1 18 19
M  V30 19 1 19 20
M  V30 20 1 20 21
M  V30 21 1 21 22
M  V30 22 1 7 23
M  V30 23 2 23 24
M  V30 24 1 24 4
M  V30 25 1 17 12
M  V30 26 1 22 18
M  V30 27 1 5 25
M  V30 28 1 6 26
M  V30 29 1 8 27
M  V30 30 1 11 28
M  V30 31 1 12 29 CFG=1
M  V30 32 1 13 30
M  V30 33 1 13 31
M  V30 34 1 14 32
M  V30 35 1 14 33
M  V30 36 1 15 34
M  V30 37 1 15 35
M  V30 38 1 16 36
M  V30 39 1 16 37
M  V30 40 1 17 38 CFG=3
M  V30 41 1 19 39
M  V30 42 1 19 40
M  V30 43 1 20 41
M  V30 44 1 20 42
M  V30 45 1 21 43
M  V30 46 1 21 44
M  V30 47 1 22 45
M  V30 48 1 22 46
M  V30 49 1 23 47
M  V30 50 1 24 48
M  V30 END BOND
M  V30 END CTAB
M  END
>  <catalyst_id>  (1) 
LGYVFMSBPOQWRA_HZPDHXFCSA_NONE

>  <source_smiles>  (1) 
O=[N+]([O-])c1ccc(NC(=S)N[C@@H]2CCCC[C@H]2N2CCCC2)cc1

>  <axial_configuration>  (1) 
none

>  <inchikey>  (1) 
LGYVFMSBPOQWRA-HZPDHXFCSA-N

>  <build_source>  (1) 
smiles

>  <rdkit_version>  (1) 
2025.09.6

>  <random_seed>  (1) 
42

>  <generated_at>  (1) 
2026-05-19T12:30:15

$$$$
