catalyst429
     RDKit          3D

  0  0  0  0  0  0  0  0  0  0999 V3000
M  V30 BEGIN CTAB
M  V30 COUNTS 66 70 0 0 0
M  V30 BEGIN ATOM
M  V30 1 C -4.979908 -2.447369 0.544481 0
M  V30 2 C -3.829067 -2.998478 0.137019 0
M  V30 3 C -2.458868 -2.855006 0.766933 0 CFG=1
M  V30 4 C -1.347879 -2.655302 -0.306734 0
M  V30 5 N -0.548458 -1.419186 -0.076210 0
M  V30 6 C 0.131316 -1.547518 1.241067 0
M  V30 7 C -0.846300 -1.871613 2.377521 0
M  V30 8 C -2.284268 -1.752812 1.845406 0 CFG=1
M  V30 9 C -2.382987 -0.344546 1.227290 0
M  V30 10 C -1.518970 -0.265505 -0.058195 0 CFG=1
M  V30 11 C -0.844541 1.145383 -0.297196 0 CFG=1
M  V30 12 N -0.381837 1.333428 -1.689782 0
M  V30 13 C 0.732287 0.855210 -2.317638 0
M  V30 14 S 1.112239 1.580259 -3.775053 0
M  V30 15 N 1.371399 -0.176265 -1.690857 0
M  V30 16 C 2.649495 -0.735143 -1.898073 0
M  V30 17 C 2.839823 -2.060629 -1.490919 0
M  V30 18 C 4.086315 -2.693823 -1.619711 0
M  V30 19 C 4.251637 -4.133829 -1.201122 0
M  V30 20 F 3.913995 -5.003627 -2.191304 0
M  V30 21 F 5.529285 -4.444141 -0.846323 0
M  V30 22 F 3.478249 -4.466706 -0.129495 0
M  V30 23 C 5.155507 -1.974988 -2.172137 0
M  V30 24 C 4.991638 -0.639561 -2.572100 0
M  V30 25 C 6.157555 0.151067 -3.116581 0
M  V30 26 F 6.808493 0.842835 -2.141294 0
M  V30 27 F 5.797724 1.068859 -4.054339 0
M  V30 28 F 7.100995 -0.634599 -3.708194 0
M  V30 29 C 3.735875 -0.027069 -2.413380 0
M  V30 30 C -1.791296 2.302462 0.035956 0
M  V30 31 C -2.972964 2.433781 -0.714085 0
M  V30 32 C -3.841444 3.464213 -0.423094 0
M  V30 33 N -3.625623 4.365705 0.550884 0
M  V30 34 C -2.502105 4.263070 1.275225 0
M  V30 35 C -2.301887 5.207942 2.273312 0
M  V30 36 C -1.171899 5.196019 3.091166 0
M  V30 37 C -0.222103 4.210623 2.898921 0
M  V30 38 O 0.901671 4.142806 3.665923 0
M  V30 39 C -0.389202 3.249121 1.907371 0
M  V30 40 C -1.532878 3.248822 1.069781 0
M  V30 41 H -5.905062 -2.648583 0.011058 0
M  V30 42 H -5.049523 -1.804437 1.414986 0
M  V30 43 H -3.876675 -3.661991 -0.727421 0
M  V30 44 H -2.262819 -3.822870 1.251350 0
M  V30 45 H -0.671191 -3.520346 -0.298673 0
M  V30 46 H -1.761944 -2.627176 -1.322970 0
M  V30 47 H 0.683559 -0.629047 1.470679 0
M  V30 48 H 0.893849 -2.333809 1.181058 0
M  V30 49 H -0.664627 -2.883117 2.760067 0
M  V30 50 H -0.689124 -1.178695 3.212761 0
M  V30 51 H -2.995946 -1.873900 2.669027 0
M  V30 52 H -2.052780 0.386263 1.975405 0
M  V30 53 H -3.422751 -0.101227 0.985488 0
M  V30 54 H -2.194704 -0.409119 -0.914900 0
M  V30 55 H 0.057441 1.196839 0.313357 0
M  V30 56 H -0.767700 2.131483 -2.182389 0
M  V30 57 H 0.727204 -0.756112 -1.148239 0
M  V30 58 H 2.003465 -2.625208 -1.080689 0
M  V30 59 H 6.128878 -2.455668 -2.284751 0
M  V30 60 H 3.642263 1.024759 -2.672065 0
M  V30 61 H -3.216409 1.743972 -1.517048 0
M  V30 62 H -4.763352 3.597206 -0.982277 0
M  V30 63 H -3.054502 5.980570 2.417865 0
M  V30 64 H -1.061027 5.955406 3.858062 0
M  V30 65 H 0.905859 4.892942 4.284034 0
M  V30 66 H 0.396607 2.507979 1.806427 0
M  V30 END ATOM
M  V30 BEGIN BOND
M  V30 1 2 1 2
M  V30 2 1 2 3
M  V30 3 1 3 4
M  V30 4 1 4 5
M  V30 5 1 5 6
M  V30 6 1 6 7
M  V30 7 1 7 8
M  V30 8 1 8 9
M  V30 9 1 9 10
M  V30 10 1 10 11
M  V30 11 1 11 12
M  V30 12 1 12 13
M  V30 13 2 13 14
M  V30 14 1 13 15
M  V30 15 1 15 16
M  V30 16 2 16 17
M  V30 17 1 17 18
M  V30 18 1 18 19
M  V30 19 1 19 20
M  V30 20 1 19 21
M  V30 21 1 19 22
M  V30 22 2 18 23
M  V30 23 1 23 24
M  V30 24 1 24 25
M  V30 25 1 25 26
M  V30 26 1 25 27
M  V30 27 1 25 28
M  V30 28 2 24 29
M  V30 29 1 11 30
M  V30 30 2 30 31
M  V30 31 1 31 32
M  V30 32 2 32 33
M  V30 33 1 33 34
M  V30 34 2 34 35
M  V30 35 1 35 36
M  V30 36 2 36 37
M  V30 37 1 37 38
M  V30 38 1 37 39
M  V30 39 2 39 40
M  V30 40 1 8 3
M  V30 41 1 29 16
M  V30 42 1 40 30
M  V30 43 1 10 5
M  V30 44 1 40 34
M  V30 45 1 1 41
M  V30 46 1 1 42
M  V30 47 1 2 43
M  V30 48 1 3 44 CFG=1
M  V30 49 1 4 45
M  V30 50 1 4 46
M  V30 51 1 6 47
M  V30 52 1 6 48
M  V30 53 1 7 49
M  V30 54 1 7 50
M  V30 55 1 8 51 CFG=1
M  V30 56 1 9 52
M  V30 57 1 9 53
M  V30 58 1 10 54 CFG=3
M  V30 59 1 11 55 CFG=1
M  V30 60 1 12 56
M  V30 61 1 15 57
M  V30 62 1 17 58
M  V30 63 1 23 59
M  V30 64 1 29 60
M  V30 65 1 31 61
M  V30 66 1 32 62
M  V30 67 1 35 63
M  V30 68 1 36 64
M  V30 69 1 38 65
M  V30 70 1 39 66
M  V30 END BOND
M  V30 END CTAB
M  END
>  <catalyst_id>  (1) 
ZIVKAMNGSCJTRG_WSCLJCSOSA_NONE

>  <source_smiles>  (1) 
C=C[C@H]1CN2CC[C@H]1C[C@H]2[C@@H](NC(=S)Nc1cc(C(F)(F)F)cc(C(F)(F)F)c1)c1ccnc2ccc(O)cc12

>  <axial_configuration>  (1) 
none

>  <inchikey>  (1) 
ZIVKAMNGSCJTRG-WSCLJCSOSA-N

>  <build_source>  (1) 
smiles

>  <rdkit_version>  (1) 
2025.09.6

>  <random_seed>  (1) 
42

>  <generated_at>  (1) 
2026-05-19T12:32:59

$$$$
