catalyst391
     RDKit          3D

  0  0  0  0  0  0  0  0  0  0999 V3000
M  V30 BEGIN CTAB
M  V30 COUNTS 78 81 0 0 0
M  V30 BEGIN ATOM
M  V30 1 O 3.589299 -0.666206 0.162832 0
M  V30 2 C 2.862869 -0.021477 0.910540 0
M  V30 3 N 1.586604 -0.417781 1.258789 0
M  V30 4 C 0.963966 -1.587549 0.637723 0 CFG=1
M  V30 5 C 1.549307 -2.887700 1.241558 0
M  V30 6 C 1.195381 -4.128571 0.454412 0
M  V30 7 C 0.316639 -5.085242 0.979776 0
M  V30 8 C -0.017951 -6.219473 0.238310 0
M  V30 9 C 0.525566 -6.410229 -1.030790 0
M  V30 10 C 1.408229 -5.469954 -1.558370 0
M  V30 11 C 1.744283 -4.335625 -0.818934 0
M  V30 12 C -0.562086 -1.533168 0.812360 0
M  V30 13 P -1.455262 -0.349382 -0.246237 0 CHG=1
M  V30 14 C -1.187550 -1.000143 -1.914135 0
M  V30 15 C -2.038061 -0.442276 -3.028131 0
M  V30 16 C -1.605959 0.645388 -3.795658 0
M  V30 17 C -2.414823 1.165466 -4.808346 0
M  V30 18 C -3.664142 0.604636 -5.063530 0
M  V30 19 C -4.105196 -0.478046 -4.307115 0
M  V30 20 C -3.296544 -0.999163 -3.296019 0
M  V30 21 C -0.786474 1.266826 0.021050 0
M  V30 22 C -1.221674 2.025209 1.118359 0
M  V30 23 C -0.690741 3.290416 1.375260 0
M  V30 24 C 0.290010 3.815487 0.539479 0
M  V30 25 C 0.743882 3.070599 -0.545244 0
M  V30 26 C 0.213489 1.802872 -0.796852 0
M  V30 27 C -3.192325 -0.408221 0.126707 0
M  V30 28 C -4.031080 0.618153 -0.332730 0
M  V30 29 C -5.400623 0.602286 -0.066213 0
M  V30 30 C -5.953829 -0.444279 0.664868 0
M  V30 31 C -5.136806 -1.474127 1.123842 0
M  V30 32 C -3.765806 -1.456878 0.854523 0
M  V30 33 C 3.323334 1.292060 1.446808 0
M  V30 34 C 2.778715 1.861869 2.604667 0
M  V30 35 C 3.220547 3.114897 3.061396 0
M  V30 36 C 2.596244 3.748530 4.282658 0
M  V30 37 F 1.577847 4.591240 3.958424 0
M  V30 38 F 3.480581 4.486903 5.007300 0
M  V30 39 F 2.070172 2.838533 5.147942 0
M  V30 40 C 4.221132 3.789466 2.341086 0
M  V30 41 C 4.787711 3.226420 1.185870 0
M  V30 42 C 5.881680 3.940200 0.426934 0
M  V30 43 F 5.910217 5.280177 0.670730 0
M  V30 44 F 7.119786 3.474574 0.742135 0
M  V30 45 F 5.758389 3.812094 -0.922602 0
M  V30 46 C 4.336491 1.969278 0.754825 0
M  V30 47 Br 0.000000 0.000000 0.000000 0 CHG=-1
M  V30 48 H 0.969156 0.286854 1.641795 0
M  V30 49 H 1.205101 -1.541474 -0.429645 0
M  V30 50 H 2.644201 -2.834190 1.294343 0
M  V30 51 H 1.217831 -2.990665 2.283462 0
M  V30 52 H -0.114672 -4.953793 1.969328 0
M  V30 53 H -0.700763 -6.956947 0.651993 0
M  V30 54 H 0.266487 -7.294827 -1.606492 0
M  V30 55 H 1.839658 -5.621545 -2.544406 0
M  V30 56 H 2.443834 -3.614029 -1.238469 0
M  V30 57 H -0.811089 -1.310926 1.857147 0
M  V30 58 H -0.992191 -2.511221 0.577606 0
M  V30 59 H -1.355955 -2.084355 -1.872995 0
M  V30 60 H -0.131414 -0.893732 -2.185446 0
M  V30 61 H -0.634545 1.097752 -3.620603 0
M  V30 62 H -2.068552 2.009973 -5.398314 0
M  V30 63 H -4.293424 1.011258 -5.850353 0
M  V30 64 H -5.081057 -0.915767 -4.499092 0
M  V30 65 H -3.662797 -1.837664 -2.706900 0
M  V30 66 H -1.991769 1.633063 1.780431 0
M  V30 67 H -1.049948 3.869088 2.222949 0
M  V30 68 H 0.698927 4.803653 0.733281 0
M  V30 69 H 1.515916 3.473292 -1.196341 0
M  V30 70 H 0.609745 1.232333 -1.631199 0
M  V30 71 H -3.616157 1.436509 -0.918915 0
M  V30 72 H -6.032729 1.405027 -0.436243 0
M  V30 73 H -7.020324 -0.459932 0.871837 0
M  V30 74 H -5.567739 -2.295779 1.690137 0
M  V30 75 H -3.159442 -2.279681 1.219696 0
M  V30 76 H 2.013375 1.336162 3.172271 0
M  V30 77 H 4.565018 4.766292 2.687636 0
M  V30 78 H 4.769883 1.517181 -0.138758 0
M  V30 END ATOM
M  V30 BEGIN BOND
M  V30 1 2 1 2
M  V30 2 1 2 3
M  V30 3 1 3 4
M  V30 4 1 4 5
M  V30 5 1 5 6
M  V30 6 2 6 7
M  V30 7 1 7 8
M  V30 8 2 8 9
M  V30 9 1 9 10
M  V30 10 2 10 11
M  V30 11 1 4 12
M  V30 12 1 12 13
M  V30 13 1 13 14
M  V30 14 1 14 15
M  V30 15 2 15 16
M  V30 16 1 16 17
M  V30 17 2 17 18
M  V30 18 1 18 19
M  V30 19 2 19 20
M  V30 20 1 13 21
M  V30 21 2 21 22
M  V30 22 1 22 23
M  V30 23 2 23 24
M  V30 24 1 24 25
M  V30 25 2 25 26
M  V30 26 1 13 27
M  V30 27 2 27 28
M  V30 28 1 28 29
M  V30 29 2 29 30
M  V30 30 1 30 31
M  V30 31 2 31 32
M  V30 32 1 2 33
M  V30 33 2 33 34
M  V30 34 1 34 35
M  V30 35 1 35 36
M  V30 36 1 36 37
M  V30 37 1 36 38
M  V30 38 1 36 39
M  V30 39 2 35 40
M  V30 40 1 40 41
M  V30 41 1 41 42
M  V30 42 1 42 43
M  V30 43 1 42 44
M  V30 44 1 42 45
M  V30 45 2 41 46
M  V30 46 1 11 6
M  V30 47 1 20 15
M  V30 48 1 26 21
M  V30 49 1 32 27
M  V30 50 1 46 33
M  V30 51 1 3 48
M  V30 52 1 4 49 CFG=3
M  V30 53 1 5 50
M  V30 54 1 5 51
M  V30 55 1 7 52
M  V30 56 1 8 53
M  V30 57 1 9 54
M  V30 58 1 10 55
M  V30 59 1 11 56
M  V30 60 1 12 57
M  V30 61 1 12 58
M  V30 62 1 14 59
M  V30 63 1 14 60
M  V30 64 1 16 61
M  V30 65 1 17 62
M  V30 66 1 18 63
M  V30 67 1 19 64
M  V30 68 1 20 65
M  V30 69 1 22 66
M  V30 70 1 23 67
M  V30 71 1 24 68
M  V30 72 1 25 69
M  V30 73 1 26 70
M  V30 74 1 28 71
M  V30 75 1 29 72
M  V30 76 1 30 73
M  V30 77 1 31 74
M  V30 78 1 32 75
M  V30 79 1 34 76
M  V30 80 1 40 77
M  V30 81 1 46 78
M  V30 END BOND
M  V30 END CTAB
M  END
>  <catalyst_id>  (1) 
WYUSDLLPANAXOZ_UCRKPPETSA_NONE

>  <source_smiles>  (1) 
O=C(N[C@@H](Cc1ccccc1)C[P+](Cc1ccccc1)(c1ccccc1)c1ccccc1)c1cc(C(F)(F)F)cc(C(F)(F)F)c1.[Br-]

>  <axial_configuration>  (1) 
none

>  <inchikey>  (1) 
WYUSDLLPANAXOZ-UCRKPPETSA-N

>  <build_source>  (1) 
smiles

>  <rdkit_version>  (1) 
2025.09.6

>  <random_seed>  (1) 
42

>  <generated_at>  (1) 
2026-05-19T12:34:19

$$$$
