catalyst217
     RDKit          3D

  0  0  0  0  0  0  0  0  0  0999 V3000
M  V30 BEGIN CTAB
M  V30 COUNTS 29 28 0 0 0
M  V30 BEGIN ATOM
M  V30 1 C 1.055932 1.932940 -0.171891 0
M  V30 2 C 0.698032 0.457791 0.032678 0 CFG=1
M  V30 3 O -0.518721 0.234744 -0.700498 0
M  V30 4 C -1.722065 -0.018630 0.039419 0
M  V30 5 C -1.642624 -1.334790 0.822243 0
M  V30 6 C -2.084082 1.147037 0.967814 0
M  V30 7 C -2.821485 -0.152594 -1.025501 0
M  V30 8 C 1.800384 -0.479523 -0.526264 0 CFG=2
M  V30 9 N 1.477183 -1.921980 -0.308649 0
M  V30 10 C 3.150820 -0.160511 0.122813 0
M  V30 11 O 3.976545 0.646607 -0.271796 0
M  V30 12 O 3.378802 -0.859418 1.259478 0
M  V30 13 H 0.220688 2.582436 0.107152 0
M  V30 14 H 1.920895 2.229800 0.427700 0
M  V30 15 H 1.270310 2.139223 -1.226497 0
M  V30 16 H 0.568126 0.274975 1.104933 0
M  V30 17 H -2.601926 -1.576380 1.293029 0
M  V30 18 H -1.367631 -2.164980 0.162709 0
M  V30 19 H -0.888522 -1.294564 1.614278 0
M  V30 20 H -1.345927 1.275848 1.765807 0
M  V30 21 H -2.120162 2.091035 0.412967 0
M  V30 22 H -3.059245 0.991152 1.442029 0
M  V30 23 H -2.895549 0.761770 -1.625861 0
M  V30 24 H -2.589117 -0.963567 -1.725734 0
M  V30 25 H -3.800776 -0.352380 -0.577890 0
M  V30 26 H 1.899550 -0.344963 -1.609567 0
M  V30 27 H 1.576463 -2.106556 0.692391 0
M  V30 28 H 2.200600 -2.483979 -0.755725 0
M  V30 29 H 4.263505 -0.550542 1.549932 0
M  V30 END ATOM
M  V30 BEGIN BOND
M  V30 1 1 1 2
M  V30 2 1 2 3
M  V30 3 1 3 4
M  V30 4 1 4 5
M  V30 5 1 4 6
M  V30 6 1 4 7
M  V30 7 1 2 8
M  V30 8 1 8 9
M  V30 9 1 8 10
M  V30 10 2 10 11
M  V30 11 1 10 12
M  V30 12 1 1 13
M  V30 13 1 1 14
M  V30 14 1 1 15
M  V30 15 1 2 16 CFG=1
M  V30 16 1 5 17
M  V30 17 1 5 18
M  V30 18 1 5 19
M  V30 19 1 6 20
M  V30 20 1 6 21
M  V30 21 1 6 22
M  V30 22 1 7 23
M  V30 23 1 7 24
M  V30 24 1 7 25
M  V30 25 1 8 26 CFG=3
M  V30 26 1 9 27
M  V30 27 1 9 28
M  V30 28 1 12 29
M  V30 END BOND
M  V30 END CTAB
M  END
>  <catalyst_id>  (1) 
NMJINEMBBQVPGY_RITPCOANSA_NONE

>  <source_smiles>  (1) 
C[C@@H](OC(C)(C)C)[C@H](N)C(=O)O

>  <axial_configuration>  (1) 
none

>  <inchikey>  (1) 
NMJINEMBBQVPGY-RITPCOANSA-N

>  <build_source>  (1) 
smiles

>  <rdkit_version>  (1) 
2025.09.6

>  <random_seed>  (1) 
42

>  <generated_at>  (1) 
2026-05-19T12:30:03

$$$$
