catalyst290
     RDKit          3D

  0  0  0  0  0  0  0  0  0  0999 V3000
M  V30 BEGIN CTAB
M  V30 COUNTS 75 78 0 0 0
M  V30 BEGIN ATOM
M  V30 1 C 3.087276 3.944226 0.591849 0
M  V30 2 C 4.097702 2.938980 0.067523 0
M  V30 3 N 3.478201 1.681647 -0.294505 0
M  V30 4 C 3.159382 0.733938 0.653345 0
M  V30 5 O 3.415302 0.883938 1.841117 0
M  V30 6 N 2.551808 -0.358506 0.079991 0
M  V30 7 C 2.112954 -1.542010 0.709916 0
M  V30 8 C 2.189030 -1.760439 2.088043 0
M  V30 9 C 1.753756 -2.972948 2.654980 0
M  V30 10 C 1.819752 -3.169082 4.150381 0
M  V30 11 F 1.690660 -4.473354 4.525800 0
M  V30 12 F 2.988227 -2.739773 4.698730 0
M  V30 13 F 0.826633 -2.498869 4.798400 0
M  V30 14 C 1.237654 -3.973159 1.818454 0
M  V30 15 C 1.151112 -3.765815 0.442589 0
M  V30 16 C 1.561212 -2.547024 -0.102548 0
M  V30 17 O 1.476963 -2.331003 -1.457874 0
M  V30 18 C 0.112806 -2.296514 -1.912556 0 CFG=2
M  V30 19 C -0.192683 -3.511884 -2.812709 0
M  V30 20 C -1.193861 -2.945005 -3.768883 0
M  V30 21 C -2.053616 -3.635991 -4.606272 0
M  V30 22 C -2.889596 -2.901278 -5.449509 0
M  V30 23 C -2.846617 -1.498627 -5.455245 0
M  V30 24 C -1.967346 -0.811019 -4.616731 0
M  V30 25 C -1.151154 -1.546044 -3.770202 0
M  V30 26 C -0.102438 -1.046297 -2.817567 0 CFG=1
M  V30 27 N -0.558364 0.103267 -2.040397 0
M  V30 28 C -0.040403 1.358930 -2.032046 0
M  V30 29 S 1.231771 1.906717 -2.961898 0
M  V30 30 N -0.594871 2.237033 -1.154029 0
M  V30 31 C -1.655890 2.019336 -0.149215 0 CFG=2
M  V30 32 C -2.223573 3.378497 0.284668 0
M  V30 33 C -1.300962 4.129893 1.238342 0
M  V30 34 C -0.947659 3.292538 2.458367 0
M  V30 35 C -0.344827 1.945655 2.071189 0
M  V30 36 C -1.151694 1.128391 1.039322 0 CFG=1
M  V30 37 N -2.233301 0.248254 1.561353 0
M  V30 38 C -1.682888 -1.004277 2.094681 0
M  V30 39 C -3.119080 0.838931 2.558975 0
M  V30 40 H 3.576388 4.899881 0.803599 0
M  V30 41 H 2.619250 3.591226 1.515897 0
M  V30 42 H 2.291623 4.119556 -0.139574 0
M  V30 43 H 4.581760 3.329157 -0.833248 0
M  V30 44 H 4.870964 2.755274 0.820994 0
M  V30 45 H 2.961749 1.660785 -1.165040 0
M  V30 46 H 2.479287 -0.360488 -0.929149 0
M  V30 47 H 2.590823 -1.000434 2.754192 0
M  V30 48 H 0.905830 -4.922514 2.237227 0
M  V30 49 H 0.771685 -4.559013 -0.194084 0
M  V30 50 H -0.608191 -2.267509 -1.079569 0
M  V30 51 H -0.612032 -4.336273 -2.228246 0
M  V30 52 H 0.699525 -3.862740 -3.342172 0
M  V30 53 H -2.080335 -4.721173 -4.614916 0
M  V30 54 H -3.575415 -3.419624 -6.115669 0
M  V30 55 H -3.497793 -0.943092 -6.126113 0
M  V30 56 H -1.922281 0.274089 -4.634918 0
M  V30 57 H 0.815048 -0.818870 -3.368729 0
M  V30 58 H -1.419610 -0.043119 -1.532967 0
M  V30 59 H -0.133422 3.139922 -1.143437 0
M  V30 60 H -2.454293 1.487349 -0.681852 0
M  V30 61 H -2.409223 4.004719 -0.597350 0
M  V30 62 H -3.198400 3.241540 0.762249 0
M  V30 63 H -1.786783 5.058189 1.560416 0
M  V30 64 H -0.381879 4.423457 0.717468 0
M  V30 65 H -0.227769 3.842623 3.076177 0
M  V30 66 H -1.837869 3.157779 3.079356 0
M  V30 67 H 0.644401 2.139296 1.637266 0
M  V30 68 H -0.152938 1.354355 2.973864 0
M  V30 69 H -0.419542 0.439747 0.598507 0
M  V30 70 H -1.019122 -0.839566 2.950028 0
M  V30 71 H -2.488130 -1.677384 2.410908 0
M  V30 72 H -1.129265 -1.541819 1.318860 0
M  V30 73 H -3.940619 0.148679 2.785954 0
M  V30 74 H -3.597669 1.748239 2.193474 0
M  V30 75 H -2.607134 1.056501 3.502097 0
M  V30 END ATOM
M  V30 BEGIN BOND
M  V30 1 1 1 2
M  V30 2 1 2 3
M  V30 3 1 3 4
M  V30 4 2 4 5
M  V30 5 1 4 6
M  V30 6 1 6 7
M  V30 7 2 7 8
M  V30 8 1 8 9
M  V30 9 1 9 10
M  V30 10 1 10 11
M  V30 11 1 10 12
M  V30 12 1 10 13
M  V30 13 2 9 14
M  V30 14 1 14 15
M  V30 15 2 15 16
M  V30 16 1 16 17
M  V30 17 1 17 18
M  V30 18 1 18 19
M  V30 19 1 19 20
M  V30 20 2 20 21
M  V30 21 1 21 22
M  V30 22 2 22 23
M  V30 23 1 23 24
M  V30 24 2 24 25
M  V30 25 1 25 26
M  V30 26 1 26 27
M  V30 27 1 27 28
M  V30 28 2 28 29
M  V30 29 1 28 30
M  V30 30 1 30 31
M  V30 31 1 31 32
M  V30 32 1 32 33
M  V30 33 1 33 34
M  V30 34 1 34 35
M  V30 35 1 35 36
M  V30 36 1 36 37
M  V30 37 1 37 38
M  V30 38 1 37 39
M  V30 39 1 16 7
M  V30 40 1 26 18
M  V30 41 1 36 31
M  V30 42 1 25 20
M  V30 43 1 1 40
M  V30 44 1 1 41
M  V30 45 1 1 42
M  V30 46 1 2 43
M  V30 47 1 2 44
M  V30 48 1 3 45
M  V30 49 1 6 46
M  V30 50 1 8 47
M  V30 51 1 14 48
M  V30 52 1 15 49
M  V30 53 1 18 50 CFG=1
M  V30 54 1 19 51
M  V30 55 1 19 52
M  V30 56 1 21 53
M  V30 57 1 22 54
M  V30 58 1 23 55
M  V30 59 1 24 56
M  V30 60 1 26 57 CFG=3
M  V30 61 1 27 58
M  V30 62 1 30 59
M  V30 63 1 31 60 CFG=3
M  V30 64 1 32 61
M  V30 65 1 32 62
M  V30 66 1 33 63
M  V30 67 1 33 64
M  V30 68 1 34 65
M  V30 69 1 34 66
M  V30 70 1 35 67
M  V30 71 1 35 68
M  V30 72 1 36 69 CFG=3
M  V30 73 1 38 70
M  V30 74 1 38 71
M  V30 75 1 38 72
M  V30 76 1 39 73
M  V30 77 1 39 74
M  V30 78 1 39 75
M  V30 END BOND
M  V30 END CTAB
M  END
>  <catalyst_id>  (1) 
QWHZDFIDOROBJW_NBUHOVDFSA_NONE

>  <source_smiles>  (1) 
CCNC(=O)Nc1cc(C(F)(F)F)ccc1O[C@@H]1Cc2ccccc2[C@H]1NC(=S)N[C@@H]1CCCC[C@H]1N(C)C

>  <axial_configuration>  (1) 
none

>  <inchikey>  (1) 
QWHZDFIDOROBJW-NBUHOVDFSA-N

>  <build_source>  (1) 
smiles

>  <rdkit_version>  (1) 
2025.09.6

>  <random_seed>  (1) 
42

>  <generated_at>  (1) 
2026-05-19T12:32:49

$$$$
