catalyst251
     RDKit          3D

  0  0  0  0  0  0  0  0  0  0999 V3000
M  V30 BEGIN CTAB
M  V30 COUNTS 56 60 0 0 0
M  V30 BEGIN ATOM
M  V30 1 C -5.758190 0.822488 -0.696336 0
M  V30 2 C -4.458766 0.627694 -0.436555 0
M  V30 3 C -3.738382 -0.680196 -0.667085 0 CFG=1
M  V30 4 C -2.504355 -0.511993 -1.592336 0
M  V30 5 N -1.259952 -1.026862 -0.964072 0
M  V30 6 C -1.448121 -2.462016 -0.655806 0
M  V30 7 C -2.639864 -2.695936 0.285225 0
M  V30 8 C -3.273814 -1.341884 0.653804 0 CFG=1
M  V30 9 C -2.161562 -0.510262 1.319370 0
M  V30 10 C -1.023774 -0.250308 0.300568 0 CFG=1
M  V30 11 C 0.400820 -0.492101 0.928381 0 CFG=1
M  V30 12 N 1.413820 -0.668505 -0.118266 0
M  V30 13 C 2.673298 -1.241454 -0.043299 0
M  V30 14 S 3.369664 -1.788484 1.386668 0
M  V30 15 C 3.342241 -1.333509 -1.400008 0
M  V30 16 C 4.643944 -1.790703 -1.583963 0
M  V30 17 C 5.158424 -1.834255 -2.878637 0
M  V30 18 C 4.366791 -1.424141 -3.944913 0
M  V30 19 C 3.083057 -0.981585 -3.676426 0
M  V30 20 N 2.552447 -0.924529 -2.436536 0
M  V30 21 C 0.768021 0.615145 1.916962 0
M  V30 22 C 0.754496 0.284020 3.280796 0
M  V30 23 C 1.048546 1.257738 4.212184 0
M  V30 24 N 1.342520 2.530749 3.894046 0
M  V30 25 C 1.374324 2.865808 2.595346 0
M  V30 26 C 1.693466 4.181221 2.286420 0
M  V30 27 C 1.756749 4.639912 0.970838 0
M  V30 28 C 1.496077 3.763011 -0.068877 0
M  V30 29 C 1.171275 2.436229 0.215370 0
M  V30 30 C 1.097982 1.952729 1.547265 0
M  V30 31 H -6.389153 0.032747 -1.092211 0
M  V30 32 H -6.221736 1.787409 -0.512950 0
M  V30 33 H -3.878646 1.460309 -0.042278 0
M  V30 34 H -4.430839 -1.376168 -1.162248 0
M  V30 35 H -2.677693 -1.051566 -2.532945 0
M  V30 36 H -2.355304 0.534382 -1.889149 0
M  V30 37 H -1.599228 -3.018892 -1.589276 0
M  V30 38 H -0.535711 -2.883354 -0.218299 0
M  V30 39 H -2.304023 -3.214964 1.190977 0
M  V30 40 H -3.381612 -3.341162 -0.200378 0
M  V30 41 H -4.112191 -1.489025 1.343818 0
M  V30 42 H -1.795412 -1.051764 2.199858 0
M  V30 43 H -2.559028 0.444074 1.683447 0
M  V30 44 H -1.076510 0.808237 0.015440 0
M  V30 45 H 0.372982 -1.451922 1.460430 0
M  V30 46 H 1.063683 -0.552613 -1.072175 0
M  V30 47 H 5.264568 -2.107352 -0.753574 0
M  V30 48 H 6.172262 -2.185771 -3.051124 0
M  V30 49 H 4.742588 -1.448097 -4.962018 0
M  V30 50 H 2.427034 -0.651059 -4.477042 0
M  V30 51 H 0.529049 -0.722821 3.618206 0
M  V30 52 H 1.054529 1.032695 5.274663 0
M  V30 53 H 1.903401 4.871749 3.100327 0
M  V30 54 H 2.013661 5.675627 0.767541 0
M  V30 55 H 1.548562 4.101974 -1.100054 0
M  V30 56 H 0.983584 1.779305 -0.629114 0
M  V30 END ATOM
M  V30 BEGIN BOND
M  V30 1 2 1 2
M  V30 2 1 2 3
M  V30 3 1 3 4
M  V30 4 1 4 5
M  V30 5 1 5 6
M  V30 6 1 6 7
M  V30 7 1 7 8
M  V30 8 1 8 9
M  V30 9 1 9 10
M  V30 10 1 10 11
M  V30 11 1 11 12
M  V30 12 1 12 13
M  V30 13 2 13 14
M  V30 14 1 13 15
M  V30 15 2 15 16
M  V30 16 1 16 17
M  V30 17 2 17 18
M  V30 18 1 18 19
M  V30 19 2 19 20
M  V30 20 1 11 21
M  V30 21 2 21 22
M  V30 22 1 22 23
M  V30 23 2 23 24
M  V30 24 1 24 25
M  V30 25 2 25 26
M  V30 26 1 26 27
M  V30 27 2 27 28
M  V30 28 1 28 29
M  V30 29 2 29 30
M  V30 30 1 8 3
M  V30 31 1 20 15
M  V30 32 1 30 21
M  V30 33 1 10 5
M  V30 34 1 30 25
M  V30 35 1 1 31
M  V30 36 1 1 32
M  V30 37 1 2 33
M  V30 38 1 3 34 CFG=3
M  V30 39 1 4 35
M  V30 40 1 4 36
M  V30 41 1 6 37
M  V30 42 1 6 38
M  V30 43 1 7 39
M  V30 44 1 7 40
M  V30 45 1 8 41 CFG=1
M  V30 46 1 9 42
M  V30 47 1 9 43
M  V30 48 1 10 44 CFG=3
M  V30 49 1 11 45 CFG=1
M  V30 50 1 12 46
M  V30 51 1 16 47
M  V30 52 1 17 48
M  V30 53 1 18 49
M  V30 54 1 19 50
M  V30 55 1 22 51
M  V30 56 1 23 52
M  V30 57 1 26 53
M  V30 58 1 27 54
M  V30 59 1 28 55
M  V30 60 1 29 56
M  V30 END BOND
M  V30 END CTAB
M  END
>  <catalyst_id>  (1) 
PHFJTQQIDGNRKK_MQQADFIWSA_NONE

>  <source_smiles>  (1) 
C=C[C@H]1CN2CC[C@H]1C[C@H]2[C@@H](NC(=S)c1ccccn1)c1ccnc2ccccc12

>  <axial_configuration>  (1) 
none

>  <inchikey>  (1) 
PHFJTQQIDGNRKK-MQQADFIWSA-N

>  <build_source>  (1) 
smiles

>  <rdkit_version>  (1) 
2025.09.6

>  <random_seed>  (1) 
42

>  <generated_at>  (1) 
2026-05-19T12:34:45

$$$$
