catalyst103
     RDKit          3D

  0  0  0  0  0  0  0  0  0  0999 V3000
M  V30 BEGIN CTAB
M  V30 COUNTS 78 83 0 0 0
M  V30 BEGIN ATOM
M  V30 1 C 3.864073 0.349010 4.730201 0
M  V30 2 C 3.354918 0.380969 3.296974 0
M  V30 3 C 2.017363 1.124687 3.135847 0 CFG=1
M  V30 4 C 1.603711 1.177787 1.644577 0
M  V30 5 N 0.159589 0.893156 1.451176 0
M  V30 6 C -0.611127 1.807451 2.327982 0
M  V30 7 C -0.339939 1.526460 3.814266 0
M  V30 8 C 0.835588 0.538938 3.945234 0 CFG=1
M  V30 9 C 0.395573 -0.789782 3.307924 0
M  V30 10 C -0.135530 -0.523924 1.878608 0 CFG=2
M  V30 11 C 0.377908 -1.596275 0.842078 0 CFG=2
M  V30 12 N 0.188901 -1.084052 -0.525618 0
M  V30 13 C 0.851345 -1.505393 -1.583847 0
M  V30 14 C 0.949918 -1.166279 -2.911462 0
M  V30 15 N 0.447674 -0.300634 -3.767371 0
M  V30 16 C -0.603861 0.652302 -3.463340 0
M  V30 17 C -0.033199 2.050771 -3.457071 0
M  V30 18 C 0.600505 2.554727 -2.311154 0
M  V30 19 C 1.154472 3.844841 -2.294530 0
M  V30 20 C 1.828345 4.357167 -1.043445 0
M  V30 21 F 0.973635 4.438258 0.013765 0
M  V30 22 F 2.362065 5.602523 -1.185443 0
M  V30 23 F 2.853558 3.557932 -0.636481 0
M  V30 24 C 1.068668 4.634908 -3.452015 0
M  V30 25 C 0.443001 4.151680 -4.612703 0
M  V30 26 C 0.363158 4.992628 -5.865790 0
M  V30 27 F 1.166316 4.520759 -6.858041 0
M  V30 28 F -0.894357 5.031653 -6.387648 0
M  V30 29 F 0.727002 6.290474 -5.672205 0
M  V30 30 C -0.096973 2.854738 -4.604632 0
M  V30 31 C 1.950177 -2.235054 -3.164872 0
M  V30 32 O 2.599483 -2.670399 -4.083636 0
M  V30 33 C 1.858881 -2.589312 -1.729634 0
M  V30 34 O 2.444701 -3.391088 -1.042980 0
M  V30 35 C -0.293761 -2.954737 1.021111 0
M  V30 36 C 0.506115 -4.000428 1.507276 0
M  V30 37 C -0.059810 -5.240918 1.712674 0
M  V30 38 N -1.356119 -5.515412 1.482729 0
M  V30 39 C -2.134535 -4.535288 1.002616 0
M  V30 40 C -3.464398 -4.843612 0.755122 0
M  V30 41 C -4.367612 -3.905132 0.247698 0
M  V30 42 C -3.933882 -2.617723 -0.025880 0
M  V30 43 O -4.693592 -1.598163 -0.527463 0
M  V30 44 C -6.061607 -1.886545 -0.790390 0
M  V30 45 C -2.597561 -2.289790 0.219464 0
M  V30 46 C -1.666987 -3.225811 0.742078 0
M  V30 47 H 4.873342 -0.074582 4.759236 0
M  V30 48 H 3.228831 -0.271915 5.368421 0
M  V30 49 H 3.907842 1.356380 5.155800 0
M  V30 50 H 4.109512 0.882302 2.677488 0
M  V30 51 H 3.280867 -0.645124 2.919806 0
M  V30 52 H 2.177848 2.156875 3.479612 0
M  V30 53 H 1.823742 2.177044 1.250208 0
M  V30 54 H 2.204006 0.495714 1.031506 0
M  V30 55 H -1.683271 1.708245 2.118395 0
M  V30 56 H -0.361167 2.848517 2.087057 0
M  V30 57 H -1.235299 1.106140 4.288146 0
M  V30 58 H -0.108219 2.464030 4.333184 0
M  V30 59 H 1.086646 0.399789 5.000655 0
M  V30 60 H -0.403066 -1.239902 3.911086 0
M  V30 61 H 1.227314 -1.501428 3.310838 0
M  V30 62 H -1.229257 -0.603166 1.917787 0
M  V30 63 H 1.459978 -1.702977 0.998340 0
M  V30 64 H -0.170733 -0.126373 -0.488239 0
M  V30 65 H 0.768530 -0.267592 -4.734992 0
M  V30 66 H -1.101884 0.446227 -2.508797 0
M  V30 67 H -1.385950 0.573561 -4.228210 0
M  V30 68 H 0.671611 1.932247 -1.418802 0
M  V30 69 H 1.497562 5.638607 -3.451099 0
M  V30 70 H -0.572184 2.470109 -5.507683 0
M  V30 71 H 1.564359 -3.861300 1.709440 0
M  V30 72 H 0.533585 -6.073806 2.079103 0
M  V30 73 H -3.810991 -5.854344 0.961835 0
M  V30 74 H -5.390923 -4.221288 0.077575 0
M  V30 75 H -6.590201 -2.163968 0.127702 0
M  V30 76 H -6.526253 -0.975441 -1.179357 0
M  V30 77 H -6.160854 -2.664138 -1.555011 0
M  V30 78 H -2.287117 -1.276512 -0.018550 0
M  V30 END ATOM
M  V30 BEGIN BOND
M  V30 1 1 1 2
M  V30 2 1 2 3
M  V30 3 1 3 4
M  V30 4 1 4 5
M  V30 5 1 5 6
M  V30 6 1 6 7
M  V30 7 1 7 8
M  V30 8 1 8 9
M  V30 9 1 9 10
M  V30 10 1 10 11
M  V30 11 1 11 12
M  V30 12 1 12 13
M  V30 13 2 13 14
M  V30 14 1 14 15
M  V30 15 1 15 16
M  V30 16 1 16 17
M  V30 17 2 17 18
M  V30 18 1 18 19
M  V30 19 1 19 20
M  V30 20 1 20 21
M  V30 21 1 20 22
M  V30 22 1 20 23
M  V30 23 2 19 24
M  V30 24 1 24 25
M  V30 25 1 25 26
M  V30 26 1 26 27
M  V30 27 1 26 28
M  V30 28 1 26 29
M  V30 29 2 25 30
M  V30 30 1 14 31
M  V30 31 2 31 32
M  V30 32 1 31 33
M  V30 33 2 33 34
M  V30 34 1 11 35
M  V30 35 2 35 36
M  V30 36 1 36 37
M  V30 37 2 37 38
M  V30 38 1 38 39
M  V30 39 2 39 40
M  V30 40 1 40 41
M  V30 41 2 41 42
M  V30 42 1 42 43
M  V30 43 1 43 44
M  V30 44 1 42 45
M  V30 45 2 45 46
M  V30 46 1 8 3
M  V30 47 1 33 13
M  V30 48 1 46 35
M  V30 49 1 10 5
M  V30 50 1 30 17
M  V30 51 1 46 39
M  V30 52 1 1 47
M  V30 53 1 1 48
M  V30 54 1 1 49
M  V30 55 1 2 50
M  V30 56 1 2 51
M  V30 57 1 3 52 CFG=1
M  V30 58 1 4 53
M  V30 59 1 4 54
M  V30 60 1 6 55
M  V30 61 1 6 56
M  V30 62 1 7 57
M  V30 63 1 7 58
M  V30 64 1 8 59 CFG=1
M  V30 65 1 9 60
M  V30 66 1 9 61
M  V30 67 1 10 62 CFG=1
M  V30 68 1 11 63 CFG=1
M  V30 69 1 12 64
M  V30 70 1 15 65
M  V30 71 1 16 66
M  V30 72 1 16 67
M  V30 73 1 18 68
M  V30 74 1 24 69
M  V30 75 1 30 70
M  V30 76 1 36 71
M  V30 77 1 37 72
M  V30 78 1 40 73
M  V30 79 1 41 74
M  V30 80 1 44 75
M  V30 81 1 44 76
M  V30 82 1 44 77
M  V30 83 1 45 78
M  V30 END BOND
M  V30 END CTAB
M  END
>  <catalyst_id>  (1) 
IBNVQUNAJFCWQL_CPAHJZNRSA_NONE

>  <source_smiles>  (1) 
CC[C@H]1CN2CC[C@H]1C[C@@H]2[C@H](Nc1c(NCc2cc(C(F)(F)F)cc(C(F)(F)F)c2)c(=O)c1=O)c1ccnc2ccc(OC)cc12

>  <axial_configuration>  (1) 
none

>  <inchikey>  (1) 
IBNVQUNAJFCWQL-CPAHJZNRSA-N

>  <build_source>  (1) 
smiles

>  <rdkit_version>  (1) 
2025.09.6

>  <random_seed>  (1) 
42

>  <generated_at>  (1) 
2026-05-19T12:34:12

$$$$
