catalyst417
     RDKit          3D

  0  0  0  0  0  0  0  0  0  0999 V3000
M  V30 BEGIN CTAB
M  V30 COUNTS 61 64 0 0 0
M  V30 BEGIN ATOM
M  V30 1 O 6.336827 1.444709 -3.311426 0
M  V30 2 N 6.518328 1.887158 -2.168235 0 CHG=1
M  V30 3 O 7.438466 2.653435 -1.848652 0 CHG=-1
M  V30 4 C 5.576461 1.477902 -1.119230 0
M  V30 5 C 4.534762 0.596131 -1.424578 0
M  V30 6 C 3.639816 0.208133 -0.420493 0
M  V30 7 C 3.767331 0.702554 0.881818 0
M  V30 8 N 2.925307 0.334510 1.951277 0
M  V30 9 C 1.715188 -0.304856 1.976855 0
M  V30 10 S 1.290097 -1.055807 3.406270 0
M  V30 11 N 0.954084 -0.210686 0.851984 0
M  V30 12 C -0.330076 -0.850032 0.482122 0 CFG=1
M  V30 13 C -0.221648 -2.388743 0.348043 0
M  V30 14 C 0.814550 -2.825059 -0.666085 0
M  V30 15 C 0.589675 -2.644434 -2.038195 0
M  V30 16 C 1.556995 -3.025352 -2.969391 0
M  V30 17 C 2.755163 -3.592628 -2.539552 0
M  V30 18 C 2.986330 -3.782184 -1.178512 0
M  V30 19 C 2.020788 -3.401433 -0.245435 0
M  V30 20 C -1.492125 -0.409823 1.398915 0
M  V30 21 P -3.170294 -0.559771 0.610330 0
M  V30 22 C -3.030510 0.649092 -0.750420 0
M  V30 23 C -2.703915 1.996774 -0.540982 0
M  V30 24 C -2.585356 2.878013 -1.618506 0
M  V30 25 C -2.790299 2.423014 -2.918756 0
M  V30 26 C -3.117041 1.087923 -3.142906 0
M  V30 27 C -3.236806 0.206465 -2.065717 0
M  V30 28 C -4.271231 0.309424 1.785284 0
M  V30 29 C -4.014958 0.348418 3.163870 0
M  V30 30 C -4.885835 1.002899 4.041739 0
M  V30 31 C -6.036767 1.617543 3.558023 0
M  V30 32 C -6.322786 1.570221 2.197628 0
M  V30 33 C -5.451998 0.915367 1.321786 0
M  V30 34 C 4.833157 1.562925 1.179142 0
M  V30 35 C 5.732864 1.961335 0.184354 0
M  V30 36 H 4.411345 0.186587 -2.425557 0
M  V30 37 H 2.883551 -0.527133 -0.680201 0
M  V30 38 H 3.317431 0.456606 2.879915 0
M  V30 39 H 1.232706 0.534072 0.227088 0
M  V30 40 H -0.511294 -0.448440 -0.522659 0
M  V30 41 H -1.184460 -2.811766 0.035291 0
M  V30 42 H -0.003779 -2.850506 1.317171 0
M  V30 43 H -0.341544 -2.205858 -2.390130 0
M  V30 44 H 1.373923 -2.883221 -4.031320 0
M  V30 45 H 3.506551 -3.892352 -3.265383 0
M  V30 46 H 3.918852 -4.227472 -0.841663 0
M  V30 47 H 2.219096 -3.549742 0.814141 0
M  V30 48 H -1.498809 -1.026930 2.302329 0
M  V30 49 H -1.337394 0.628137 1.716154 0
M  V30 50 H -2.547692 2.380811 0.464917 0
M  V30 51 H -2.337948 3.921341 -1.439977 0
M  V30 52 H -2.700907 3.109898 -3.756419 0
M  V30 53 H -3.282762 0.731435 -4.156322 0
M  V30 54 H -3.496155 -0.831420 -2.265738 0
M  V30 55 H -3.139879 -0.135244 3.589017 0
M  V30 56 H -4.665232 1.024093 5.106010 0
M  V30 57 H -6.713971 2.123216 4.240955 0
M  V30 58 H -7.225805 2.037358 1.813602 0
M  V30 59 H -5.711426 0.885468 0.264975 0
M  V30 60 H 4.968118 1.947690 2.188129 0
M  V30 61 H 6.542942 2.640234 0.443306 0
M  V30 END ATOM
M  V30 BEGIN BOND
M  V30 1 2 1 2
M  V30 2 1 2 3
M  V30 3 1 2 4
M  V30 4 2 4 5
M  V30 5 1 5 6
M  V30 6 2 6 7
M  V30 7 1 7 8
M  V30 8 1 8 9
M  V30 9 2 9 10
M  V30 10 1 9 11
M  V30 11 1 11 12
M  V30 12 1 12 13
M  V30 13 1 13 14
M  V30 14 2 14 15
M  V30 15 1 15 16
M  V30 16 2 16 17
M  V30 17 1 17 18
M  V30 18 2 18 19
M  V30 19 1 12 20
M  V30 20 1 20 21
M  V30 21 1 21 22
M  V30 22 2 22 23
M  V30 23 1 23 24
M  V30 24 2 24 25
M  V30 25 1 25 26
M  V30 26 2 26 27
M  V30 27 1 21 28
M  V30 28 2 28 29
M  V30 29 1 29 30
M  V30 30 2 30 31
M  V30 31 1 31 32
M  V30 32 2 32 33
M  V30 33 1 7 34
M  V30 34 2 34 35
M  V30 35 1 35 4
M  V30 36 1 19 14
M  V30 37 1 27 22
M  V30 38 1 33 28
M  V30 39 1 5 36
M  V30 40 1 6 37
M  V30 41 1 8 38
M  V30 42 1 11 39
M  V30 43 1 12 40 CFG=3
M  V30 44 1 13 41
M  V30 45 1 13 42
M  V30 46 1 15 43
M  V30 47 1 16 44
M  V30 48 1 17 45
M  V30 49 1 18 46
M  V30 50 1 19 47
M  V30 51 1 20 48
M  V30 52 1 20 49
M  V30 53 1 23 50
M  V30 54 1 24 51
M  V30 55 1 25 52
M  V30 56 1 26 53
M  V30 57 1 27 54
M  V30 58 1 29 55
M  V30 59 1 30 56
M  V30 60 1 31 57
M  V30 61 1 32 58
M  V30 62 1 33 59
M  V30 63 1 34 60
M  V30 64 1 35 61
M  V30 END BOND
M  V30 END CTAB
M  END
>  <catalyst_id>  (1) 
YPXGWXMQPGBFIQ_DEOSSOPVSA_NONE

>  <source_smiles>  (1) 
O=[N+]([O-])c1ccc(NC(=S)N[C@@H](Cc2ccccc2)CP(c2ccccc2)c2ccccc2)cc1

>  <axial_configuration>  (1) 
none

>  <inchikey>  (1) 
YPXGWXMQPGBFIQ-DEOSSOPVSA-N

>  <build_source>  (1) 
smiles

>  <rdkit_version>  (1) 
2025.09.6

>  <random_seed>  (1) 
42

>  <generated_at>  (1) 
2026-05-19T12:33:42

$$$$
