catalyst390
     RDKit          3D

  0  0  0  0  0  0  0  0  0  0999 V3000
M  V30 BEGIN CTAB
M  V30 COUNTS 85 91 0 0 0
M  V30 BEGIN ATOM
M  V30 1 C -7.134194 1.914929 0.786542 0
M  V30 2 C -5.821193 1.783490 0.557491 0
M  V30 3 C -4.775818 2.769191 1.022564 0 CFG=1
M  V30 4 C -3.704866 2.099387 1.921825 0
M  V30 5 N -2.320867 2.477813 1.533038 0
M  V30 6 C -2.240566 3.959549 1.527561 0
M  V30 7 C -3.162713 4.576333 0.462935 0
M  V30 8 C -4.047864 3.474475 -0.148342 0 CFG=1
M  V30 9 C -3.109096 2.475473 -0.851335 0
M  V30 10 C -2.023078 1.989889 0.142134 0 CFG=2
M  V30 11 C -1.737574 0.448421 0.079999 0 CFG=1
M  V30 12 O -2.963597 -0.296999 0.023095 0
M  V30 13 C -2.883360 -1.548281 0.701895 0
M  V30 14 C -4.150024 -2.317316 0.409199 0
M  V30 15 C -5.262053 -2.070114 1.236588 0
M  V30 16 C -6.471702 -2.719307 1.021852 0
M  V30 17 C -6.592894 -3.622070 -0.029335 0
M  V30 18 C -5.511979 -3.883112 -0.883888 0
M  V30 19 C -5.664973 -4.791123 -1.945089 0
M  V30 20 C -4.611840 -5.064906 -2.815100 0
M  V30 21 C -3.390389 -4.432322 -2.634726 0
M  V30 22 C -3.222262 -3.527966 -1.582795 0
M  V30 23 C -4.269403 -3.228309 -0.679241 0
M  V30 24 C -0.866956 0.109772 -1.130708 0
M  V30 25 C -1.482823 -0.271531 -2.331374 0
M  V30 26 C -0.694902 -0.582906 -3.418801 0
M  V30 27 N 0.650035 -0.533848 -3.402034 0
M  V30 28 C 1.255584 -0.148183 -2.269815 0
M  V30 29 C 2.639565 -0.073709 -2.274067 0
M  V30 30 C 3.368920 0.325156 -1.149387 0
M  V30 31 C 2.707081 0.650790 0.026882 0
M  V30 32 N 3.349005 1.086093 1.203975 0
M  V30 33 C 4.664797 1.042769 1.596607 0
M  V30 34 S 5.084284 2.041199 2.872949 0
M  V30 35 N 5.446791 0.102800 0.974141 0
M  V30 36 C 6.846780 -0.062618 0.929874 0
M  V30 37 C 7.326991 -1.333590 0.590118 0
M  V30 38 C 8.704845 -1.592522 0.497457 0
M  V30 39 C 9.199398 -2.982297 0.175314 0
M  V30 40 F 10.408168 -2.986833 -0.450835 0
M  V30 41 F 8.353645 -3.668969 -0.642237 0
M  V30 42 F 9.348528 -3.747772 1.289859 0
M  V30 43 C 9.607919 -0.549397 0.746579 0
M  V30 44 C 9.147262 0.740842 1.049355 0
M  V30 45 C 10.119273 1.868029 1.309254 0
M  V30 46 F 10.385893 2.027148 2.633571 0
M  V30 47 F 11.325698 1.676845 0.705124 0
M  V30 48 F 9.670261 3.073621 0.864043 0
M  V30 49 C 7.762421 0.970104 1.135655 0
M  V30 50 C 1.307439 0.607047 0.039998 0
M  V30 51 C 0.554041 0.195399 -1.091705 0
M  V30 52 H -7.540976 2.762668 1.328423 0
M  V30 53 H -7.833915 1.166533 0.426085 0
M  V30 54 H -5.477265 0.907632 0.008157 0
M  V30 55 H -5.275096 3.546842 1.618769 0
M  V30 56 H -3.807553 1.010493 1.950845 0
M  V30 57 H -3.871014 2.412338 2.961789 0
M  V30 58 H -2.499321 4.347449 2.521046 0
M  V30 59 H -1.204671 4.275951 1.353052 0
M  V30 60 H -2.564287 5.054380 -0.321993 0
M  V30 61 H -3.785230 5.356601 0.916367 0
M  V30 62 H -4.758544 3.905279 -0.862368 0
M  V30 63 H -3.690575 1.652021 -1.275292 0
M  V30 64 H -2.619940 2.972393 -1.699067 0
M  V30 65 H -1.080266 2.481802 -0.138479 0
M  V30 66 H -1.207612 0.158268 0.995503 0
M  V30 67 H -2.797703 -1.368890 1.781120 0
M  V30 68 H -1.990949 -2.109036 0.406847 0
M  V30 69 H -5.186869 -1.353845 2.052686 0
M  V30 70 H -7.321117 -2.518035 1.668904 0
M  V30 71 H -7.548318 -4.119394 -0.182475 0
M  V30 72 H -6.616127 -5.295135 -2.103976 0
M  V30 73 H -4.747994 -5.769650 -3.630842 0
M  V30 74 H -2.563559 -4.639422 -3.309238 0
M  V30 75 H -2.248075 -3.057925 -1.485596 0
M  V30 76 H -2.564129 -0.336589 -2.418985 0
M  V30 77 H -1.138380 -0.890525 -4.361627 0
M  V30 78 H 3.171404 -0.315817 -3.192510 0
M  V30 79 H 4.444622 0.421637 -1.255319 0
M  V30 80 H 2.767730 1.597326 1.862697 0
M  V30 81 H 4.907632 -0.695544 0.658717 0
M  V30 82 H 6.627996 -2.149776 0.408599 0
M  V30 83 H 10.681396 -0.739794 0.691962 0
M  V30 84 H 7.425902 1.984530 1.334432 0
M  V30 85 H 0.795170 0.894672 0.955113 0
M  V30 END ATOM
M  V30 BEGIN BOND
M  V30 1 2 1 2
M  V30 2 1 2 3
M  V30 3 1 3 4
M  V30 4 1 4 5
M  V30 5 1 5 6
M  V30 6 1 6 7
M  V30 7 1 7 8
M  V30 8 1 8 9
M  V30 9 1 9 10
M  V30 10 1 10 11
M  V30 11 1 11 12
M  V30 12 1 12 13
M  V30 13 1 13 14
M  V30 14 2 14 15
M  V30 15 1 15 16
M  V30 16 2 16 17
M  V30 17 1 17 18
M  V30 18 2 18 19
M  V30 19 1 19 20
M  V30 20 2 20 21
M  V30 21 1 21 22
M  V30 22 2 22 23
M  V30 23 1 11 24
M  V30 24 2 24 25
M  V30 25 1 25 26
M  V30 26 2 26 27
M  V30 27 1 27 28
M  V30 28 2 28 29
M  V30 29 1 29 30
M  V30 30 2 30 31
M  V30 31 1 31 32
M  V30 32 1 32 33
M  V30 33 2 33 34
M  V30 34 1 33 35
M  V30 35 1 35 36
M  V30 36 2 36 37
M  V30 37 1 37 38
M  V30 38 1 38 39
M  V30 39 1 39 40
M  V30 40 1 39 41
M  V30 41 1 39 42
M  V30 42 2 38 43
M  V30 43 1 43 44
M  V30 44 1 44 45
M  V30 45 1 45 46
M  V30 46 1 45 47
M  V30 47 1 45 48
M  V30 48 2 44 49
M  V30 49 1 31 50
M  V30 50 2 50 51
M  V30 51 1 8 3
M  V30 52 1 23 14
M  V30 53 1 51 24
M  V30 54 1 10 5
M  V30 55 1 23 18
M  V30 56 1 51 28
M  V30 57 1 49 36
M  V30 58 1 1 52
M  V30 59 1 1 53
M  V30 60 1 2 54
M  V30 61 1 3 55 CFG=1
M  V30 62 1 4 56
M  V30 63 1 4 57
M  V30 64 1 6 58
M  V30 65 1 6 59
M  V30 66 1 7 60
M  V30 67 1 7 61
M  V30 68 1 8 62 CFG=3
M  V30 69 1 9 63
M  V30 70 1 9 64
M  V30 71 1 10 65 CFG=3
M  V30 72 1 11 66 CFG=1
M  V30 73 1 13 67
M  V30 74 1 13 68
M  V30 75 1 15 69
M  V30 76 1 16 70
M  V30 77 1 17 71
M  V30 78 1 19 72
M  V30 79 1 20 73
M  V30 80 1 21 74
M  V30 81 1 22 75
M  V30 82 1 25 76
M  V30 83 1 26 77
M  V30 84 1 29 78
M  V30 85 1 30 79
M  V30 86 1 32 80
M  V30 87 1 35 81
M  V30 88 1 37 82
M  V30 89 1 43 83
M  V30 90 1 49 84
M  V30 91 1 50 85
M  V30 END BOND
M  V30 END CTAB
M  END
>  <catalyst_id>  (1) 
WVWDGANROSBGIU_RBBQFDSASA_NONE

>  <source_smiles>  (1) 
C=C[C@H]1CN2CC[C@H]1C[C@@H]2[C@@H](OCc1cccc2ccccc12)c1ccnc2ccc(NC(=S)Nc3cc(C(F)(F)F)cc(C(F)(F)F)c3)cc12

>  <axial_configuration>  (1) 
none

>  <inchikey>  (1) 
WVWDGANROSBGIU-RBBQFDSASA-N

>  <build_source>  (1) 
smiles

>  <rdkit_version>  (1) 
2025.09.6

>  <random_seed>  (1) 
42

>  <generated_at>  (1) 
2026-05-19T12:34:05

$$$$
