catalyst131
     RDKit          3D

  0  0  0  0  0  0  0  0  0  0999 V3000
M  V30 BEGIN CTAB
M  V30 COUNTS 86 90 0 0 0
M  V30 BEGIN ATOM
M  V30 1 C -5.849906 -1.177619 2.993338 0
M  V30 2 C -5.779526 0.091082 3.416933 0
M  V30 3 C -4.563050 0.987325 3.534507 0 CFG=1
M  V30 4 C -3.155559 0.338881 3.389165 0
M  V30 5 N -2.376891 0.925409 2.262943 0
M  V30 6 C -2.151565 2.360219 2.557228 0
M  V30 7 C -3.466931 3.109216 2.813840 0
M  V30 8 C -4.653581 2.170495 2.534263 0 CFG=1
M  V30 9 C -4.477214 1.658298 1.092353 0
M  V30 10 C -3.208517 0.776632 1.013972 0 CFG=1
M  V30 11 C -2.376908 1.037906 -0.290223 0 CFG=1
M  V30 12 N -1.031148 0.486507 -0.155312 0
M  V30 13 C -0.008047 0.953429 -0.938062 0
M  V30 14 O -0.128253 1.820377 -1.790821 0
M  V30 15 N 1.159584 0.302695 -0.643213 0
M  V30 16 C 2.353700 0.495688 -1.433300 0 CFG=1
M  V30 17 N 3.455718 0.420669 -0.509997 0
M  V30 18 C 4.545721 1.226914 -0.571011 0
M  V30 19 O 4.753746 2.092906 -1.405333 0
M  V30 20 O 5.378449 0.908336 0.446641 0
M  V30 21 C 6.568563 1.698429 0.479685 0
M  V30 22 C 7.398622 1.233561 1.648503 0
M  V30 23 C 8.345674 0.212361 1.487806 0
M  V30 24 C 9.101091 -0.229576 2.575267 0
M  V30 25 C 8.911448 0.338154 3.833894 0
M  V30 26 C 7.963428 1.344796 4.007979 0
M  V30 27 C 7.206996 1.788165 2.921857 0
M  V30 28 C 2.484915 -0.541103 -2.609728 0
M  V30 29 C 3.760466 -0.260711 -3.433271 0
M  V30 30 C 2.557410 -1.991820 -2.089447 0
M  V30 31 C 1.286023 -0.435810 -3.575940 0
M  V30 32 C -3.075068 0.518320 -1.545893 0
M  V30 33 C -3.558997 1.475056 -2.450084 0
M  V30 34 C -4.216172 1.052008 -3.586396 0
M  V30 35 N -4.432872 -0.241615 -3.885980 0
M  V30 36 C -3.956053 -1.171654 -3.045933 0
M  V30 37 C -4.165266 -2.501275 -3.382183 0
M  V30 38 C -3.704870 -3.555152 -2.587138 0
M  V30 39 C -3.010839 -3.278715 -1.419760 0
M  V30 40 O -2.496717 -4.197365 -0.548034 0
M  V30 41 C -2.680807 -5.568606 -0.879006 0
M  V30 42 C -2.794238 -1.944917 -1.063753 0
M  V30 43 C -3.260196 -0.861965 -1.853986 0
M  V30 44 H -6.806965 -1.692129 2.965616 0
M  V30 45 H -4.990685 -1.741648 2.649270 0
M  V30 46 H -6.714765 0.561190 3.724475 0
M  V30 47 H -4.609350 1.405967 4.550601 0
M  V30 48 H -2.592257 0.490977 4.320117 0
M  V30 49 H -3.193252 -0.747927 3.269699 0
M  V30 50 H -1.600546 2.835348 1.737427 0
M  V30 51 H -1.496508 2.454728 3.432486 0
M  V30 52 H -3.503800 3.463686 3.850880 0
M  V30 53 H -3.523019 3.993559 2.167963 0
M  V30 54 H -5.598793 2.715036 2.639527 0
M  V30 55 H -4.412083 2.517196 0.413366 0
M  V30 56 H -5.352156 1.076228 0.780277 0
M  V30 57 H -3.534747 -0.270004 0.990199 0
M  V30 58 H -2.240023 2.123856 -0.385800 0
M  V30 59 H -0.770356 0.348423 0.814832 0
M  V30 60 H 1.035862 -0.592357 -0.199893 0
M  V30 61 H 2.330401 1.506007 -1.860996 0
M  V30 62 H 3.430435 -0.235927 0.252198 0
M  V30 63 H 6.317716 2.759899 0.598758 0
M  V30 64 H 7.133655 1.575303 -0.452717 0
M  V30 65 H 8.498147 -0.245773 0.513034 0
M  V30 66 H 9.835762 -1.019138 2.440671 0
M  V30 67 H 9.499435 -0.007066 4.680143 0
M  V30 68 H 7.810682 1.783108 4.990718 0
M  V30 69 H 6.464150 2.568273 3.073604 0
M  V30 70 H 3.775826 0.772654 -3.796861 0
M  V30 71 H 4.669183 -0.431082 -2.846907 0
M  V30 72 H 3.819312 -0.918747 -4.308244 0
M  V30 73 H 1.648203 -2.273719 -1.548204 0
M  V30 74 H 3.409716 -2.137547 -1.417338 0
M  V30 75 H 2.672403 -2.699814 -2.918647 0
M  V30 76 H 1.420807 -1.090040 -4.445416 0
M  V30 77 H 0.348543 -0.736923 -3.097288 0
M  V30 78 H 1.169082 0.587105 -3.950000 0
M  V30 79 H -3.414097 2.537973 -2.282854 0
M  V30 80 H -4.597762 1.765962 -4.310528 0
M  V30 81 H -4.703479 -2.726342 -4.300794 0
M  V30 82 H -3.905131 -4.568391 -2.917242 0
M  V30 83 H -2.211132 -6.167854 -0.093058 0
M  V30 84 H -3.744175 -5.828608 -0.905581 0
M  V30 85 H -2.188683 -5.815877 -1.825470 0
M  V30 86 H -2.237917 -1.761494 -0.148954 0
M  V30 END ATOM
M  V30 BEGIN BOND
M  V30 1 2 1 2
M  V30 2 1 2 3
M  V30 3 1 3 4
M  V30 4 1 4 5
M  V30 5 1 5 6
M  V30 6 1 6 7
M  V30 7 1 7 8
M  V30 8 1 8 9
M  V30 9 1 9 10
M  V30 10 1 10 11
M  V30 11 1 11 12
M  V30 12 1 12 13
M  V30 13 2 13 14
M  V30 14 1 13 15
M  V30 15 1 15 16
M  V30 16 1 16 17
M  V30 17 1 17 18
M  V30 18 2 18 19
M  V30 19 1 18 20
M  V30 20 1 20 21
M  V30 21 1 21 22
M  V30 22 2 22 23
M  V30 23 1 23 24
M  V30 24 2 24 25
M  V30 25 1 25 26
M  V30 26 2 26 27
M  V30 27 1 16 28
M  V30 28 1 28 29
M  V30 29 1 28 30
M  V30 30 1 28 31
M  V30 31 1 11 32
M  V30 32 2 32 33
M  V30 33 1 33 34
M  V30 34 2 34 35
M  V30 35 1 35 36
M  V30 36 2 36 37
M  V30 37 1 37 38
M  V30 38 2 38 39
M  V30 39 1 39 40
M  V30 40 1 40 41
M  V30 41 1 39 42
M  V30 42 2 42 43
M  V30 43 1 8 3
M  V30 44 1 27 22
M  V30 45 1 43 32
M  V30 46 1 10 5
M  V30 47 1 43 36
M  V30 48 1 1 44
M  V30 49 1 1 45
M  V30 50 1 2 46
M  V30 51 1 3 47 CFG=1
M  V30 52 1 4 48
M  V30 53 1 4 49
M  V30 54 1 6 50
M  V30 55 1 6 51
M  V30 56 1 7 52
M  V30 57 1 7 53
M  V30 58 1 8 54 CFG=3
M  V30 59 1 9 55
M  V30 60 1 9 56
M  V30 61 1 10 57 CFG=3
M  V30 62 1 11 58 CFG=3
M  V30 63 1 12 59
M  V30 64 1 15 60
M  V30 65 1 16 61 CFG=3
M  V30 66 1 17 62
M  V30 67 1 21 63
M  V30 68 1 21 64
M  V30 69 1 23 65
M  V30 70 1 24 66
M  V30 71 1 25 67
M  V30 72 1 26 68
M  V30 73 1 27 69
M  V30 74 1 29 70
M  V30 75 1 29 71
M  V30 76 1 29 72
M  V30 77 1 30 73
M  V30 78 1 30 74
M  V30 79 1 30 75
M  V30 80 1 31 76
M  V30 81 1 31 77
M  V30 82 1 31 78
M  V30 83 1 33 79
M  V30 84 1 34 80
M  V30 85 1 37 81
M  V30 86 1 38 82
M  V30 87 1 41 83
M  V30 88 1 41 84
M  V30 89 1 41 85
M  V30 90 1 42 86
M  V30 END BOND
M  V30 END CTAB
M  END
>  <catalyst_id>  (1) 
JLIPABRUJJIIEW_RMRAHUOJSA_NONE

>  <source_smiles>  (1) 
C=C[C@H]1CN2CC[C@H]1C[C@H]2[C@@H](NC(=O)N[C@@H](NC(=O)OCc1ccccc1)C(C)(C)C)c1ccnc2ccc(OC)cc12

>  <axial_configuration>  (1) 
none

>  <inchikey>  (1) 
JLIPABRUJJIIEW-RMRAHUOJSA-N

>  <build_source>  (1) 
smiles

>  <rdkit_version>  (1) 
2025.09.6

>  <random_seed>  (1) 
42

>  <generated_at>  (1) 
2026-05-19T12:34:33

$$$$
