catalyst122
     RDKit          3D

  0  0  0  0  0  0  0  0  0  0999 V3000
M  V30 BEGIN CTAB
M  V30 COUNTS 81 88 0 0 0
M  V30 BEGIN ATOM
M  V30 1 C -5.734198 -2.340383 -4.339986 0
M  V30 2 C -4.875535 -2.049886 -3.353978 0
M  V30 3 C -5.124253 -2.369419 -1.898254 0 CFG=1
M  V30 4 C -3.977957 -3.215157 -1.280234 0
M  V30 5 N -3.386972 -2.557222 -0.083864 0
M  V30 6 C -4.456079 -2.391820 0.927087 0
M  V30 7 C -5.630174 -1.558031 0.395638 0
M  V30 8 C -5.314696 -1.094896 -1.036943 0 CFG=1
M  V30 9 C -4.004059 -0.290007 -0.950971 0
M  V30 10 C -2.843295 -1.220488 -0.521402 0 CFG=1
M  V30 11 C -1.895339 -0.565205 0.561306 0 CFG=1
M  V30 12 N -0.966107 -1.601927 1.072829 0
M  V30 13 C 0.112478 -2.037945 0.436500 0
M  V30 14 C 1.243154 -1.592485 -0.207484 0
M  V30 15 N 1.827085 -0.444693 -0.497711 0
M  V30 16 C 3.181682 -0.343899 -1.053022 0 CFG=2
M  V30 17 C 4.268348 -0.620368 0.013465 0 CFG=2
M  V30 18 C 4.292221 0.495218 1.076279 0
M  V30 19 C 4.580468 1.853538 0.417064 0 CFG=1
M  V30 20 C 5.938698 1.796440 -0.301333 0
M  V30 21 C 5.916610 0.697551 -1.376877 0 CFG=1
M  V30 22 C 5.636455 -0.655855 -0.698215 0
M  V30 23 C 4.800870 1.007890 -2.394218 0
M  V30 24 C 3.430452 1.048300 -1.684234 0 CFG=2
M  V30 25 C 3.481807 2.154944 -0.612091 0
M  V30 26 C 1.684580 -2.983083 -0.505237 0
M  V30 27 O 2.578552 -3.558018 -1.077803 0
M  V30 28 C 0.510710 -3.461040 0.252336 0
M  V30 29 O 0.112528 -4.561900 0.544498 0
M  V30 30 C -1.207337 0.751129 0.216475 0
M  V30 31 C -1.019164 1.135542 -1.118385 0
M  V30 32 C -0.457536 2.366551 -1.391232 0
M  V30 33 N -0.067128 3.236381 -0.443040 0
M  V30 34 C -0.207027 2.877190 0.840643 0
M  V30 35 C 0.227412 3.770919 1.808406 0
M  V30 36 C 0.148618 3.486548 3.174782 0
M  V30 37 C -0.374228 2.272366 3.592553 0
M  V30 38 O -0.507627 1.853326 4.886165 0
M  V30 39 C -0.019542 2.724594 5.898954 0
M  V30 40 C -0.820512 1.362197 2.630420 0
M  V30 41 C -0.758177 1.638967 1.240996 0
M  V30 42 H -6.684868 -2.828558 -4.147958 0
M  V30 43 H -5.500724 -2.092757 -5.371374 0
M  V30 44 H -3.936657 -1.564298 -3.612171 0
M  V30 45 H -6.047697 -2.961787 -1.824865 0
M  V30 46 H -4.365585 -4.200948 -0.990634 0
M  V30 47 H -3.184752 -3.424853 -2.009598 0
M  V30 48 H -4.053962 -1.937462 1.839495 0
M  V30 49 H -4.817170 -3.379843 1.240077 0
M  V30 50 H -6.551137 -2.153030 0.407110 0
M  V30 51 H -5.797674 -0.691168 1.046007 0
M  V30 52 H -6.127825 -0.469679 -1.422436 0
M  V30 53 H -4.135679 0.535035 -0.239993 0
M  V30 54 H -3.778931 0.164670 -1.922200 0
M  V30 55 H -2.216475 -1.421569 -1.401242 0
M  V30 56 H -2.565886 -0.325022 1.397038 0
M  V30 57 H -1.575569 -2.360483 1.409924 0
M  V30 58 H 1.492568 0.408710 -0.049519 0
M  V30 59 H 3.268705 -1.087707 -1.856864 0
M  V30 60 H 4.094417 -1.583236 0.506593 0
M  V30 61 H 5.063306 0.276054 1.825395 0
M  V30 62 H 3.336536 0.532592 1.612772 0
M  V30 63 H 4.599283 2.639369 1.180389 0
M  V30 64 H 6.738133 1.597482 0.422935 0
M  V30 65 H 6.160711 2.767022 -0.761727 0
M  V30 66 H 6.884513 0.661580 -1.889023 0
M  V30 67 H 6.428862 -0.883252 0.025549 0
M  V30 68 H 5.649783 -1.458951 -1.445359 0
M  V30 69 H 4.792816 0.246569 -3.183912 0
M  V30 70 H 4.997731 1.969764 -2.883605 0
M  V30 71 H 2.644133 1.280174 -2.412159 0
M  V30 72 H 2.520004 2.246001 -0.102361 0
M  V30 73 H 3.672237 3.124875 -1.088461 0
M  V30 74 H -1.285402 0.496309 -1.951701 0
M  V30 75 H -0.298106 2.694785 -2.414607 0
M  V30 76 H 0.647468 4.722422 1.488563 0
M  V30 77 H 0.508233 4.233443 3.873985 0
M  V30 78 H 1.055865 2.898071 5.786731 0
M  V30 79 H -0.179213 2.236519 6.865229 0
M  V30 80 H -0.574083 3.668730 5.906874 0
M  V30 81 H -1.203694 0.408563 2.987224 0
M  V30 END ATOM
M  V30 BEGIN BOND
M  V30 1 2 1 2
M  V30 2 1 2 3
M  V30 3 1 3 4
M  V30 4 1 4 5
M  V30 5 1 5 6
M  V30 6 1 6 7
M  V30 7 1 7 8
M  V30 8 1 8 9
M  V30 9 1 9 10
M  V30 10 1 10 11
M  V30 11 1 11 12
M  V30 12 1 12 13
M  V30 13 2 13 14
M  V30 14 1 14 15
M  V30 15 1 15 16
M  V30 16 1 16 17
M  V30 17 1 17 18
M  V30 18 1 18 19
M  V30 19 1 19 20
M  V30 20 1 20 21
M  V30 21 1 21 22
M  V30 22 1 21 23
M  V30 23 1 23 24
M  V30 24 1 24 25
M  V30 25 1 14 26
M  V30 26 2 26 27
M  V30 27 1 26 28
M  V30 28 2 28 29
M  V30 29 1 11 30
M  V30 30 2 30 31
M  V30 31 1 31 32
M  V30 32 2 32 33
M  V30 33 1 33 34
M  V30 34 2 34 35
M  V30 35 1 35 36
M  V30 36 2 36 37
M  V30 37 1 37 38
M  V30 38 1 38 39
M  V30 39 1 37 40
M  V30 40 2 40 41
M  V30 41 1 8 3
M  V30 42 1 28 13
M  V30 43 1 41 30
M  V30 44 1 10 5
M  V30 45 1 24 16
M  V30 46 1 41 34
M  V30 47 1 22 17
M  V30 48 1 25 19
M  V30 49 1 1 42
M  V30 50 1 1 43
M  V30 51 1 2 44
M  V30 52 1 3 45 CFG=3
M  V30 53 1 4 46
M  V30 54 1 4 47
M  V30 55 1 6 48
M  V30 56 1 6 49
M  V30 57 1 7 50
M  V30 58 1 7 51
M  V30 59 1 8 52 CFG=3
M  V30 60 1 9 53
M  V30 61 1 9 54
M  V30 62 1 10 55 CFG=3
M  V30 63 1 11 56 CFG=1
M  V30 64 1 12 57
M  V30 65 1 15 58
M  V30 66 1 16 59 CFG=3
M  V30 67 1 17 60 CFG=1
M  V30 68 1 18 61
M  V30 69 1 18 62
M  V30 70 1 19 63 CFG=1
M  V30 71 1 20 64
M  V30 72 1 20 65
M  V30 73 1 21 66 CFG=3
M  V30 74 1 22 67
M  V30 75 1 22 68
M  V30 76 1 23 69
M  V30 77 1 23 70
M  V30 78 1 24 71 CFG=3
M  V30 79 1 25 72
M  V30 80 1 25 73
M  V30 81 1 31 74
M  V30 82 1 32 75
M  V30 83 1 35 76
M  V30 84 1 36 77
M  V30 85 1 39 78
M  V30 86 1 39 79
M  V30 87 1 39 80
M  V30 88 1 40 81
M  V30 END BOND
M  V30 END CTAB
M  END
>  <catalyst_id>  (1) 
IXXAURCBAFNMPY_NLUSVTMISA_NONE

>  <source_smiles>  (1) 
C=C[C@H]1CN2CC[C@H]1C[C@H]2[C@@H](Nc1c(NC2C3CC4CC(C3)CC2C4)c(=O)c1=O)c1ccnc2ccc(OC)cc12

>  <axial_configuration>  (1) 
none

>  <inchikey>  (1) 
IXXAURCBAFNMPY-NLUSVTMISA-N

>  <build_source>  (1) 
smiles

>  <rdkit_version>  (1) 
2025.09.6

>  <random_seed>  (1) 
42

>  <generated_at>  (1) 
2026-05-19T12:34:49

$$$$
